Skipping setup_environment - already set
doing: export -n PTX_SIM_USE_PTX_FILE
doing: export LD_LIBRARY_PATH=/accel-sim-framework/util/job_launching/../../sim_run_11.1/gpgpu-sim-builds/accelsim-commit-_modified_0.0_25-09-09-20-25-52gpgpu-sim_git-commit-d9e6e135_modified_3.0:/accel-sim-framework/gpu-simulator/gpgpu-sim/lib/gcc-9.4.0/cuda-11010/release:/accel-sim-framework/gpu-simulator/gpgpu-sim/lib/gcc-9.4.0/cuda-11010/release:/usr/local/nvidia/lib:/usr/local/nvidia/lib64
doing: cd /accel-sim-framework/util/job_launching/../../sim_run_11.1/gaussian-rodinia-3.1/_s_16/QV100-Accelwattch_SASS_SIM
doing: export OPENCL_CURRENT_TEST_PATH=/accel-sim-framework/util/job_launching/../../sim_run_11.1/gaussian-rodinia-3.1/_s_16/QV100-Accelwattch_SASS_SIM
doing: export OPENCL_REMOTE_GPU_HOST=REPLACE_REMOTE_HOST
doing 
doing: export PATH=/accel-sim-framework/gpu-simulator/gpgpu-sim/bin:/usr/local/cuda/bin:/root/.vscode-server/bin/6f17636121051a53c88d3e605c491d22af2ba755/bin/remote-cli:/usr/local/nvidia/bin:/usr/local/cuda/bin:/usr/local/sbin:/usr/local/bin:/usr/sbin:/usr/bin:/sbin:/bin:/root/.vscode-server/data/User/globalStorage/github.copilot-chat/debugCommand
doing export CUDA_LAUNCH_BLOCKING=1
Accel-Sim [build accelsim-commit-_modified_0.0_25-09-09-20-25-52]

        *** GPGPU-Sim Simulator Version 4.2.0  [build gpgpu-sim_git-commit-d9e6e135_modified_3.0] ***


GPGPU-Sim: Configuration options:

-save_embedded_ptx                      0 # saves ptx files embedded in binary as <n>.ptx
-keep                                   0 # keep intermediate files created by GPGPU-Sim when interfacing with external programs
-gpgpu_ptx_save_converted_ptxplus                    0 # Saved converted ptxplus to a file
-gpgpu_occupancy_sm_number                   70 # The SM number to pass to ptxas when getting register usage for computing GPU occupancy. This parameter is required in the config.
-ptx_opcode_latency_int      4,13,4,5,145,21 # Opcode latencies for integers <ADD,MAX,MUL,MAD,DIV,SHFL>Default 1,1,19,25,145,32
-ptx_opcode_latency_fp          4,13,4,5,39 # Opcode latencies for single precision floating points <ADD,MAX,MUL,MAD,DIV>Default 1,1,1,1,30
-ptx_opcode_latency_dp         8,19,8,8,330 # Opcode latencies for double precision floating points <ADD,MAX,MUL,MAD,DIV>Default 8,8,8,8,335
-ptx_opcode_latency_sfu                  100 # Opcode latencies for SFU instructionsDefault 8
-ptx_opcode_latency_tesnor                   64 # Opcode latencies for Tensor instructionsDefault 64
-ptx_opcode_initiation_int          2,2,2,2,8,4 # Opcode initiation intervals for integers <ADD,MAX,MUL,MAD,DIV,SHFL>Default 1,1,4,4,32,4
-ptx_opcode_initiation_fp            2,2,2,2,4 # Opcode initiation intervals for single precision floating points <ADD,MAX,MUL,MAD,DIV>Default 1,1,1,1,5
-ptx_opcode_initiation_dp          4,4,4,4,130 # Opcode initiation intervals for double precision floating points <ADD,MAX,MUL,MAD,DIV>Default 8,8,8,8,130
-ptx_opcode_initiation_sfu                    8 # Opcode initiation intervals for sfu instructionsDefault 8
-ptx_opcode_initiation_tensor                   64 # Opcode initiation intervals for tensor instructionsDefault 64
-cdp_latency         7200,8000,100,12000,1600 # CDP API latency <cudaStreamCreateWithFlags, cudaGetParameterBufferV2_init_perWarp, cudaGetParameterBufferV2_perKernel, cudaLaunchDeviceV2_init_perWarp, cudaLaunchDevicV2_perKernel>Default 7200,8000,100,12000,1600
-network_mode                           2 # Interconnection network mode
-inter_config_file                   mesh # Interconnection network config file
-icnt_in_buffer_limit                  512 # in_buffer_limit
-icnt_out_buffer_limit                  512 # out_buffer_limit
-icnt_subnets                           2 # subnets
-icnt_arbiter_algo                      1 # arbiter_algo
-icnt_verbose                           0 # inct_verbose
-icnt_grant_cycles                      1 # grant_cycles
-gpgpu_ptx_use_cuobjdump                    1 # Use cuobjdump to extract ptx and sass from binaries
-gpgpu_experimental_lib_support                    0 # Try to extract code from cuda libraries [Broken because of unknown cudaGetExportTable]
-checkpoint_option                      0 #  checkpointing flag (0 = no checkpoint)
-checkpoint_kernel                      1 #  checkpointing during execution of which kernel (1- 1st kernel)
-checkpoint_CTA                         0 #  checkpointing after # of CTA (< less than total CTA)
-resume_option                          0 #  resume flag (0 = no resume)
-resume_kernel                          0 #  Resume from which kernel (1= 1st kernel)
-resume_CTA                             0 #  resume from which CTA 
-checkpoint_CTA_t                       0 #  resume from which CTA 
-checkpoint_insn_Y                      0 #  resume from which CTA 
-gpgpu_ptx_convert_to_ptxplus                    0 # Convert SASS (native ISA) to ptxplus and run ptxplus
-gpgpu_ptx_force_max_capability                   70 # Force maximum compute capability
-gpgpu_ptx_inst_debug_to_file                    0 # Dump executed instructions' debug information to file
-gpgpu_ptx_inst_debug_file       inst_debug.txt # Executed instructions' debug output file
-gpgpu_ptx_inst_debug_thread_uid                    1 # Thread UID for executed instructions' debug output
-gpgpu_simd_model                       1 # 1 = post-dominator
-gpgpu_shader_core_pipeline              2048:32 # shader core pipeline config, i.e., {<nthread>:<warpsize>}
-gpgpu_tex_cache:l1  N:4:128:256,L:R:m:N:L,T:512:8,128:2 # per-shader L1 texture cache  (READ-ONLY) config  {<nsets>:<bsize>:<assoc>,<rep>:<wr>:<alloc>:<wr_alloc>,<mshr>:<N>:<merge>,<mq>:<rf>}
-gpgpu_const_cache:l1 N:128:64:8,L:R:f:N:L,S:2:64,4 # per-shader L1 constant memory cache  (READ-ONLY) config  {<nsets>:<bsize>:<assoc>,<rep>:<wr>:<alloc>:<wr_alloc>,<mshr>:<N>:<merge>,<mq>} 
-gpgpu_cache:il1     N:64:128:16,L:R:f:N:L,S:2:48,4 # shader L1 instruction cache config  {<sector?>:<nsets>:<bsize>:<assoc>,<rep>:<wr>:<alloc>:<wr_alloc>:<set_index_fn>,<mshr>:<N>:<merge>,<mq>} 
-gpgpu_cache:dl1     S:4:128:64,L:T:m:L:L,A:512:8,16:0,32 # per-shader L1 data cache config  {<sector?>:<nsets>:<bsize>:<assoc>,<rep>:<wr>:<alloc>:<wr_alloc>:<set_index_fn>,<mshr>:<N>:<merge>,<mq>:<fifo_entry>,<data_port_width> | none}
-gpgpu_l1_cache_write_ratio                   25 # L1D write ratio
-gpgpu_l1_banks                         4 # The number of L1 cache banks
-gpgpu_l1_banks_byte_interleaving                   32 # l1 banks byte interleaving granularity
-gpgpu_l1_banks_hashing_function                    0 # l1 banks hashing function
-gpgpu_l1_latency                      20 # L1 Hit Latency
-gpgpu_smem_latency                    20 # smem Latency
-gpgpu_cache:dl1PrefL1                 none # per-shader L1 data cache config  {<sector?>:<nsets>:<bsize>:<assoc>,<rep>:<wr>:<alloc>:<wr_alloc>:<set_index_fn>,<mshr>:<N>:<merge>,<mq>:<fifo_entry>,<data_port_width> | none}
-gpgpu_cache:dl1PrefShared                 none # per-shader L1 data cache config  {<sector?>:<nsets>:<bsize>:<assoc>,<rep>:<wr>:<alloc>:<wr_alloc>:<set_index_fn>,<mshr>:<N>:<merge>,<mq>:<fifo_entry>,<data_port_width> | none}
-gpgpu_gmem_skip_L1D                    0 # global memory access skip L1D cache (implements -Xptxas -dlcm=cg, default=no skip)
-gpgpu_perfect_mem                      0 # enable perfect memory mode (no cache miss)
-n_regfile_gating_group                    4 # group of lanes that should be read/written together)
-gpgpu_clock_gated_reg_file                    0 # enable clock gated reg file for power calculations
-gpgpu_clock_gated_lanes                    1 # enable clock gated lanes for power calculations
-gpgpu_shader_registers                65536 # Number of registers per shader core. Limits number of concurrent CTAs. (default 8192)
-gpgpu_registers_per_block                65536 # Maximum number of registers per CTA. (default 8192)
-gpgpu_ignore_resources_limitation                    0 # gpgpu_ignore_resources_limitation (default 0)
-gpgpu_shader_cta                      32 # Maximum number of concurrent CTAs in shader (default 32)
-gpgpu_num_cta_barriers                   16 # Maximum number of named barriers per CTA (default 16)
-gpgpu_n_clusters                      80 # number of processing clusters
-gpgpu_n_cores_per_cluster                    1 # number of simd cores per cluster
-gpgpu_n_cluster_ejection_buffer_size                   32 # number of packets in ejection buffer
-gpgpu_n_ldst_response_buffer_size                    2 # number of response packets in ld/st unit ejection buffer
-gpgpu_shmem_per_block                65536 # Size of shared memory per thread block or CTA (default 48kB)
-gpgpu_shmem_size                   98304 # Size of shared memory per shader core (default 16kB)
-gpgpu_shmem_option       0,8,16,32,64,96 # Option list of shared memory sizes
-gpgpu_unified_l1d_size                  128 # Size of unified data cache(L1D + shared memory) in KB
-gpgpu_adaptive_cache_config                    1 # adaptive_cache_config
-gpgpu_shmem_sizeDefault                98304 # Size of shared memory per shader core (default 16kB)
-gpgpu_shmem_size_PrefL1                16384 # Size of shared memory per shader core (default 16kB)
-gpgpu_shmem_size_PrefShared                16384 # Size of shared memory per shader core (default 16kB)
-gpgpu_shmem_num_banks                   32 # Number of banks in the shared memory in each shader core (default 16)
-gpgpu_shmem_limited_broadcast                    0 # Limit shared memory to do one broadcast per cycle (default on)
-gpgpu_shmem_warp_parts                    1 # Number of portions a warp is divided into for shared memory bank conflict check 
-gpgpu_mem_unit_ports                    1 # The number of memory transactions allowed per core cycle
-gpgpu_shmem_warp_parts                    1 # Number of portions a warp is divided into for shared memory bank conflict check 
-gpgpu_warpdistro_shader                   -1 # Specify which shader core to collect the warp size distribution from
-gpgpu_warp_issue_shader                    0 # Specify which shader core to collect the warp issue distribution from
-gpgpu_local_mem_map                    1 # Mapping from local memory space address to simulated GPU physical address space (default = enabled)
-gpgpu_num_reg_banks                   16 # Number of register banks (default = 8)
-gpgpu_reg_bank_use_warp_id                    0 # Use warp ID in mapping registers to banks (default = off)
-gpgpu_sub_core_model                    1 # Sub Core Volta/Pascal model (default = off)
-gpgpu_enable_specialized_operand_collector                    0 # enable_specialized_operand_collector
-gpgpu_operand_collector_num_units_sp                    4 # number of collector units (default = 4)
-gpgpu_operand_collector_num_units_dp                    0 # number of collector units (default = 0)
-gpgpu_operand_collector_num_units_sfu                    4 # number of collector units (default = 4)
-gpgpu_operand_collector_num_units_int                    0 # number of collector units (default = 0)
-gpgpu_operand_collector_num_units_tensor_core                    4 # number of collector units (default = 4)
-gpgpu_operand_collector_num_units_mem                    2 # number of collector units (default = 2)
-gpgpu_operand_collector_num_units_gen                    8 # number of collector units (default = 0)
-gpgpu_operand_collector_num_in_ports_sp                    1 # number of collector unit in ports (default = 1)
-gpgpu_operand_collector_num_in_ports_dp                    0 # number of collector unit in ports (default = 0)
-gpgpu_operand_collector_num_in_ports_sfu                    1 # number of collector unit in ports (default = 1)
-gpgpu_operand_collector_num_in_ports_int                    0 # number of collector unit in ports (default = 0)
-gpgpu_operand_collector_num_in_ports_tensor_core                    1 # number of collector unit in ports (default = 1)
-gpgpu_operand_collector_num_in_ports_mem                    1 # number of collector unit in ports (default = 1)
-gpgpu_operand_collector_num_in_ports_gen                    8 # number of collector unit in ports (default = 0)
-gpgpu_operand_collector_num_out_ports_sp                    1 # number of collector unit in ports (default = 1)
-gpgpu_operand_collector_num_out_ports_dp                    0 # number of collector unit in ports (default = 0)
-gpgpu_operand_collector_num_out_ports_sfu                    1 # number of collector unit in ports (default = 1)
-gpgpu_operand_collector_num_out_ports_int                    0 # number of collector unit in ports (default = 0)
-gpgpu_operand_collector_num_out_ports_tensor_core                    1 # number of collector unit in ports (default = 1)
-gpgpu_operand_collector_num_out_ports_mem                    1 # number of collector unit in ports (default = 1)
-gpgpu_operand_collector_num_out_ports_gen                    8 # number of collector unit in ports (default = 0)
-gpgpu_coalesce_arch                   70 # Coalescing arch (GT200 = 13, Fermi = 20)
-gpgpu_num_sched_per_core                    8 # Number of warp schedulers per core
-gpgpu_max_insn_issue_per_warp                    1 # Max number of instructions that can be issued per warp in one cycle by scheduler (either 1 or 2)
-gpgpu_dual_issue_diff_exec_units                    1 # should dual issue use two different execution unit resources (Default = 1)
-gpgpu_simt_core_sim_order                    1 # Select the simulation order of cores in a cluster (0=Fix, 1=Round-Robin)
-gpgpu_pipeline_widths 8,8,8,8,8,8,8,8,8,8,16,8,8 # Pipeline widths ID_OC_SP,ID_OC_DP,ID_OC_INT,ID_OC_SFU,ID_OC_MEM,OC_EX_SP,OC_EX_DP,OC_EX_INT,OC_EX_SFU,OC_EX_MEM,EX_WB,ID_OC_TENSOR_CORE,OC_EX_TENSOR_CORE
-gpgpu_tensor_core_avail                    1 # Tensor Core Available (default=0)
-gpgpu_num_sp_units                     8 # Number of SP units (default=1)
-gpgpu_num_dp_units                     8 # Number of DP units (default=0)
-gpgpu_num_int_units                    8 # Number of INT units (default=0)
-gpgpu_num_sfu_units                    8 # Number of SF units (default=1)
-gpgpu_num_tensor_core_units                    8 # Number of tensor_core units (default=1)
-gpgpu_num_mem_units                    1 # Number if ldst units (default=1) WARNING: not hooked up to anything
-gpgpu_scheduler                      lrr # Scheduler configuration: < lrr | gto | two_level_active > If two_level_active:<num_active_warps>:<inner_prioritization>:<outer_prioritization>For complete list of prioritization values see shader.h enum scheduler_prioritization_typeDefault: gto
-gpgpu_concurrent_kernel_sm                    0 # Support concurrent kernels on a SM (default = disabled)
-gpgpu_perfect_inst_const_cache                    1 # perfect inst and const cache mode, so all inst and const hits in the cache(default = disabled)
-gpgpu_inst_fetch_throughput                    4 # the number of fetched intruction per warp each cycle
-gpgpu_reg_file_port_throughput                    2 # the number ports of the register file
-specialized_unit_1         1,8,4,8,8,BRA # specialized unit config {<enabled>,<num_units>:<latency>:<initiation>,<ID_OC_SPEC>:<OC_EX_SPEC>,<NAME>}
-specialized_unit_2       1,8,200,8,8,TEX # specialized unit config {<enabled>,<num_units>:<latency>:<initiation>,<ID_OC_SPEC>:<OC_EX_SPEC>,<NAME>}
-specialized_unit_3      1,8,8,8,8,TENSOR # specialized unit config {<enabled>,<num_units>:<latency>:<initiation>,<ID_OC_SPEC>:<OC_EX_SPEC>,<NAME>}
-specialized_unit_4         0,4,4,4,4,BRA # specialized unit config {<enabled>,<num_units>:<latency>:<initiation>,<ID_OC_SPEC>:<OC_EX_SPEC>,<NAME>}
-specialized_unit_5         0,4,4,4,4,BRA # specialized unit config {<enabled>,<num_units>:<latency>:<initiation>,<ID_OC_SPEC>:<OC_EX_SPEC>,<NAME>}
-specialized_unit_6         0,4,4,4,4,BRA # specialized unit config {<enabled>,<num_units>:<latency>:<initiation>,<ID_OC_SPEC>:<OC_EX_SPEC>,<NAME>}
-specialized_unit_7         0,4,4,4,4,BRA # specialized unit config {<enabled>,<num_units>:<latency>:<initiation>,<ID_OC_SPEC>:<OC_EX_SPEC>,<NAME>}
-specialized_unit_8         0,4,4,4,4,BRA # specialized unit config {<enabled>,<num_units>:<latency>:<initiation>,<ID_OC_SPEC>:<OC_EX_SPEC>,<NAME>}
-gpgpu_enable_reconfig                    1 # Enable dynamic reconfiguration of execution units and caches
-gpgpu_perf_sim_memcpy                    1 # Fill the L2 cache on memcpy
-gpgpu_simple_dram_model                    0 # simple_dram_model with fixed latency and BW
-gpgpu_dram_scheduler                    1 # 0 = fifo, 1 = FR-FCFS (defaul)
-gpgpu_dram_partition_queues          64:64:64:64 # i2$:$2d:d2$:$2i
-l2_ideal                               0 # Use a ideal L2 cache that always hit
-gpgpu_cache:dl2     S:32:128:24,L:B:m:L:P,A:192:4,32:0,32 # unified banked L2 data cache config  {<sector?>:<nsets>:<bsize>:<assoc>,<rep>:<wr>:<alloc>:<wr_alloc>:<set_index_fn>,<mshr>:<N>:<merge>,<mq>:<fifo_entry>,<data_port_width>
-gpgpu_cache:dl2_texture_only                    0 # L2 cache used for texture only
-gpgpu_n_mem                           32 # number of memory modules (e.g. memory controllers) in gpu
-gpgpu_n_sub_partition_per_mchannel                    2 # number of memory subpartition in each memory module
-gpgpu_n_mem_per_ctrlr                    1 # number of memory chips per memory controller
-gpgpu_memlatency_stat                   14 # track and display latency statistics 0x2 enables MC, 0x4 enables queue logs
-gpgpu_frfcfs_dram_sched_queue_size                   64 # 0 = unlimited (default); # entries per chip
-gpgpu_dram_return_queue_size                  192 # 0 = unlimited (default); # entries per chip
-gpgpu_dram_buswidth                   16 # default = 4 bytes (8 bytes per cycle at DDR)
-gpgpu_dram_burst_length                    2 # Burst length of each DRAM request (default = 4 data bus cycle)
-dram_data_command_freq_ratio                    2 # Frequency ratio between DRAM data bus and command bus (default = 2 times, i.e. DDR)
-gpgpu_dram_timing_opt nbk=16:CCD=1:RRD=3:RCD=12:RAS=28:RP=12:RC=40: CL=12:WL=2:CDLR=3:WR=10:nbkgrp=4:CCDL=2:RTPL=3 # DRAM timing parameters = {nbk:tCCD:tRRD:tRCD:tRAS:tRP:tRC:CL:WL:tCDLR:tWR:nbkgrp:tCCDL:tRTPL}
-gpgpu_l2_rop_latency                  160 # ROP queue latency (default 85)
-dram_latency                         100 # DRAM latency (default 30)
-dram_dual_bus_interface                    1 # dual_bus_interface (default = 0) 
-dram_bnk_indexing_policy                    0 # dram_bnk_indexing_policy (0 = normal indexing, 1 = Xoring with the higher bits) (Default = 0)
-dram_bnkgrp_indexing_policy                    1 # dram_bnkgrp_indexing_policy (0 = take higher bits, 1 = take lower bits) (Default = 0)
-dram_seperate_write_queue_enable                    0 # Seperate_Write_Queue_Enable
-dram_write_queue_size             32:28:16 # Write_Queue_Size
-dram_elimnate_rw_turnaround                    0 # elimnate_rw_turnaround i.e set tWTR and tRTW = 0
-icnt_flit_size                        40 # icnt_flit_size
-SST_mode                               0 # SST mode
-gpgpu_mem_addr_mapping dramid@8;00000000.00000000.00000000.00000000.0000RRRR.RRRRRRRR.RBBBCCCB.CCCSSSSS # mapping memory address to dram model {dramid@<start bit>;<memory address map>}
-gpgpu_mem_addr_test                    0 # run sweep test to check address mapping for aliased address
-gpgpu_mem_address_mask                    1 # 0 = old addressing mask, 1 = new addressing mask, 2 = new add. mask + flipped bank sel and chip sel bits
-gpgpu_memory_partition_indexing                    2 # 0 = no indexing, 1 = bitwise xoring, 2 = IPoly, 3 = custom indexing
-accelwattch_xml_file accelwattch_sass_sim.xml # AccelWattch XML file
-power_simulation_enabled                    1 # Turn on power simulator (1=On, 0=Off)
-power_per_cycle_dump                    0 # Dump detailed power output each cycle
-hw_perf_file_name            hw_perf.csv # Hardware Performance Statistics file
-hw_perf_bench_name                       # Kernel Name in Hardware Performance Statistics file
-power_simulation_mode                    0 # Switch performance counter input for power simulation (0=Sim, 1=HW, 2=HW-Sim Hybrid)
-dvfs_enabled                           0 # Turn on DVFS for power model
-aggregate_power_stats                    0 # Accumulate power across all kernels
-accelwattch_hybrid_perfsim_L1_RH                    0 # Get L1 Read Hits for Accelwattch-Hybrid from Accel-Sim
-accelwattch_hybrid_perfsim_L1_RM                    0 # Get L1 Read Misses for Accelwattch-Hybrid from Accel-Sim
-accelwattch_hybrid_perfsim_L1_WH                    0 # Get L1 Write Hits for Accelwattch-Hybrid from Accel-Sim
-accelwattch_hybrid_perfsim_L1_WM                    0 # Get L1 Write Misses for Accelwattch-Hybrid from Accel-Sim
-accelwattch_hybrid_perfsim_L2_RH                    0 # Get L2 Read Hits for Accelwattch-Hybrid from Accel-Sim
-accelwattch_hybrid_perfsim_L2_RM                    0 # Get L2 Read Misses for Accelwattch-Hybrid from Accel-Sim
-accelwattch_hybrid_perfsim_L2_WH                    0 # Get L2 Write Hits for Accelwattch-Hybrid from Accel-Sim
-accelwattch_hybrid_perfsim_L2_WM                    0 # Get L2 Write Misses for Accelwattch-Hybrid from Accel-Sim
-accelwattch_hybrid_perfsim_CC_ACC                    0 # Get Constant Cache Acesses for Accelwattch-Hybrid from Accel-Sim
-accelwattch_hybrid_perfsim_SHARED_ACC                    0 # Get Shared Memory Acesses for Accelwattch-Hybrid from Accel-Sim
-accelwattch_hybrid_perfsim_DRAM_RD                    0 # Get DRAM Reads for Accelwattch-Hybrid from Accel-Sim
-accelwattch_hybrid_perfsim_DRAM_WR                    0 # Get DRAM Writes for Accelwattch-Hybrid from Accel-Sim
-accelwattch_hybrid_perfsim_NOC                    0 # Get Interconnect Acesses for Accelwattch-Hybrid from Accel-Sim
-accelwattch_hybrid_perfsim_PIPE_DUTY                    0 # Get Pipeline Duty Cycle Acesses for Accelwattch-Hybrid from Accel-Sim
-accelwattch_hybrid_perfsim_NUM_SM_IDLE                    0 # Get Number of Idle SMs for Accelwattch-Hybrid from Accel-Sim
-accelwattch_hybrid_perfsim_CYCLES                    0 # Get Executed Cycles for Accelwattch-Hybrid from Accel-Sim
-accelwattch_hybrid_perfsim_VOLTAGE                    0 # Get Chip Voltage for Accelwattch-Hybrid from Accel-Sim
-power_trace_enabled                    0 # produce a file for the power trace (1=On, 0=Off)
-power_trace_zlevel                     6 # Compression level of the power trace output log (0=no comp, 9=highest)
-steady_power_levels_enabled                    0 # produce a file for the steady power levels (1=On, 0=Off)
-steady_state_definition                  8:4 # allowed deviation:number of samples
-gpgpu_max_cycle                        0 # terminates gpu simulation early (0 = no limit)
-gpgpu_max_insn                         0 # terminates gpu simulation early (0 = no limit)
-gpgpu_max_cta                          0 # terminates gpu simulation early (0 = no limit)
-gpgpu_max_completed_cta                    0 # terminates gpu simulation early (0 = no limit)
-gpgpu_runtime_stat                   500 # display runtime statistics such as dram utilization {<freq>:<flag>}
-liveness_message_freq                    1 # Minimum number of seconds between simulation liveness messages (0 = always print)
-gpgpu_compute_capability_major                    7 # Major compute capability version number
-gpgpu_compute_capability_minor                    0 # Minor compute capability version number
-gpgpu_flush_l1_cache                    1 # Flush L1 cache at the end of each kernel call
-gpgpu_flush_l2_cache                    0 # Flush L2 cache at the end of each kernel call
-gpgpu_deadlock_detect                    1 # Stop the simulation at deadlock (1=on (default), 0=off)
-gpgpu_ptx_instruction_classification                    0 # if enabled will classify ptx instruction types per kernel (Max 255 kernels now)
-gpgpu_ptx_sim_mode                     0 # Select between Performance (default) or Functional simulation (1)
-gpgpu_clock_domains 1132.0:1132.0:1132.0:850.0 # Clock Domain Frequencies in MhZ {<Core Clock>:<ICNT Clock>:<L2 Clock>:<DRAM Clock>}
-gpgpu_max_concurrent_kernel                  128 # maximum kernels that can run concurrently on GPU, set this value according to max resident grids for your compute capability
-gpgpu_cflog_interval                    0 # Interval between each snapshot in control flow logger
-visualizer_enabled                     0 # Turn on visualizer output (1=On, 0=Off)
-visualizer_outputfile                 NULL # Specifies the output log file for visualizer
-visualizer_zlevel                      6 # Compression level of the visualizer output log (0=no comp, 9=highest)
-gpgpu_stack_size_limit                 1024 # GPU thread stack size
-gpgpu_heap_size_limit              8388608 # GPU malloc heap size 
-gpgpu_runtime_sync_depth_limit                    2 # GPU device runtime synchronize depth
-gpgpu_runtime_pending_launch_count_limit                 2048 # GPU device runtime pending launch count
-trace_enabled                          0 # Turn on traces
-trace_components                    none # comma seperated list of traces to enable. Complete list found in trace_streams.tup. Default none
-trace_sampling_core                    0 # The core which is printed using CORE_DPRINTF. Default 0
-trace_sampling_memory_partition                   -1 # The memory partition which is printed using MEMPART_DPRINTF. Default -1 (i.e. all)
-enable_ptx_file_line_stats                    1 # Turn on PTX source line statistic profiling. (1 = On)
-ptx_line_stats_filename gpgpu_inst_stats.txt # Output file for PTX source line statistics.
-gpgpu_kernel_launch_latency                 5000 # Kernel launch latency in cycles. Default: 0
-gpgpu_cdp_enabled                      0 # Turn on CDP
-gpgpu_TB_launch_latency                    0 # thread block launch latency in cycles. Default: 0
-gpgpu_phase_size                   10062 # Number of instructions per phase for monitoring behavior (default=10000)
-trace               ./traces/kernelslist.g # traces kernel filetraces kernel file directory
-trace_opcode_latency_initiation_int                  2,2 # Opcode latencies and initiation for integers in trace driven mode <latency,initiation>
-trace_opcode_latency_initiation_sp                  2,2 # Opcode latencies and initiation for sp in trace driven mode <latency,initiation>
-trace_opcode_latency_initiation_dp                  8,4 # Opcode latencies and initiation for dp in trace driven mode <latency,initiation>
-trace_opcode_latency_initiation_sfu                 20,8 # Opcode latencies and initiation for sfu in trace driven mode <latency,initiation>
-trace_opcode_latency_initiation_tensor                  2,2 # Opcode latencies and initiation for tensor in trace driven mode <latency,initiation>
-trace_opcode_latency_initiation_spec_op_1                  4,4 # specialized unit config <latency,initiation>
-trace_opcode_latency_initiation_spec_op_2                200,4 # specialized unit config <latency,initiation>
-trace_opcode_latency_initiation_spec_op_3                  2,2 # specialized unit config <latency,initiation>
-trace_opcode_latency_initiation_spec_op_4                  4,4 # specialized unit config <latency,initiation>
-trace_opcode_latency_initiation_spec_op_5                  4,4 # specialized unit config <latency,initiation>
-trace_opcode_latency_initiation_spec_op_6                  4,4 # specialized unit config <latency,initiation>
-trace_opcode_latency_initiation_spec_op_7                  4,4 # specialized unit config <latency,initiation>
-trace_opcode_latency_initiation_spec_op_8                  4,4 # specialized unit config <latency,initiation>
DRAM Timing Options:
nbk                                    16 # number of banks
CCD                                     1 # column to column delay
RRD                                     3 # minimal delay between activation of rows in different banks
RCD                                    12 # row to column delay
RAS                                    28 # time needed to activate row
RP                                     12 # time needed to precharge (deactivate) row
RC                                     40 # row cycle time
CDLR                                    3 # switching from write to read (changes tWTR)
WR                                     10 # last data-in to row precharge
CL                                     12 # CAS latency
WL                                      2 # Write latency
nbkgrp                                  4 # number of bank groups
CCDL                                    2 # column to column delay between accesses to different bank groups
RTPL                                    3 # read to precharge delay between accesses to different bank groups
Total number of memory sub partition = 64
addr_dec_mask[CHIP]  = 0000000000001f00 	high:13 low:8
addr_dec_mask[BK]    = 00000000000e2000 	high:20 low:13
addr_dec_mask[ROW]   = 00000001fff00000 	high:33 low:20
addr_dec_mask[COL]   = 000000000001c0ff 	high:17 low:0
addr_dec_mask[BURST] = 000000000000001f 	high:5 low:0
sub_partition_id_mask = 0000000000002000
GPGPU-Sim uArch: clock freqs: 1132000000.000000:1132000000.000000:1132000000.000000:850000000.000000
GPGPU-Sim uArch: clock periods: 0.00000000088339222615:0.00000000088339222615:0.00000000088339222615:0.00000000117647058824
*** Initializing Memory Statistics ***
GPGPU-Sim uArch: performance model initialization complete.
DEBUG: GPGPUSIM_RECONFIG_PATH=/accel-sim-framework/gpu-simulator/gpgpu-sim/configs/tested-cfgs/SM7_QV100/configs/rodinia3.1/gaussian-rodinia-3.1/_s_16/reconfig.txt
Loaded 4 reconfiguration points
Scheduler count: 8, Specialized unit 0 width: 8
Scheduler count: 8, Specialized unit 1 width: 8
Scheduler count: 8, Specialized unit 2 width: 8
DEBUG: GPGPUSIM_RECONFIG_PATH=/accel-sim-framework/gpu-simulator/gpgpu-sim/configs/tested-cfgs/SM7_QV100/configs/rodinia3.1/gaussian-rodinia-3.1/_s_16/reconfig.txt
Loaded 4 reconfiguration points
Scheduler count: 8, Specialized unit 0 width: 8
Scheduler count: 8, Specialized unit 1 width: 8
Scheduler count: 8, Specialized unit 2 width: 8
DEBUG: GPGPUSIM_RECONFIG_PATH=/accel-sim-framework/gpu-simulator/gpgpu-sim/configs/tested-cfgs/SM7_QV100/configs/rodinia3.1/gaussian-rodinia-3.1/_s_16/reconfig.txt
Loaded 4 reconfiguration points
Scheduler count: 8, Specialized unit 0 width: 8
Scheduler count: 8, Specialized unit 1 width: 8
Scheduler count: 8, Specialized unit 2 width: 8
DEBUG: GPGPUSIM_RECONFIG_PATH=/accel-sim-framework/gpu-simulator/gpgpu-sim/configs/tested-cfgs/SM7_QV100/configs/rodinia3.1/gaussian-rodinia-3.1/_s_16/reconfig.txt
Loaded 4 reconfiguration points
Scheduler count: 8, Specialized unit 0 width: 8
Scheduler count: 8, Specialized unit 1 width: 8
Scheduler count: 8, Specialized unit 2 width: 8
DEBUG: GPGPUSIM_RECONFIG_PATH=/accel-sim-framework/gpu-simulator/gpgpu-sim/configs/tested-cfgs/SM7_QV100/configs/rodinia3.1/gaussian-rodinia-3.1/_s_16/reconfig.txt
Loaded 4 reconfiguration points
Scheduler count: 8, Specialized unit 0 width: 8
Scheduler count: 8, Specialized unit 1 width: 8
Scheduler count: 8, Specialized unit 2 width: 8
DEBUG: GPGPUSIM_RECONFIG_PATH=/accel-sim-framework/gpu-simulator/gpgpu-sim/configs/tested-cfgs/SM7_QV100/configs/rodinia3.1/gaussian-rodinia-3.1/_s_16/reconfig.txt
Loaded 4 reconfiguration points
Scheduler count: 8, Specialized unit 0 width: 8
Scheduler count: 8, Specialized unit 1 width: 8
Scheduler count: 8, Specialized unit 2 width: 8
DEBUG: GPGPUSIM_RECONFIG_PATH=/accel-sim-framework/gpu-simulator/gpgpu-sim/configs/tested-cfgs/SM7_QV100/configs/rodinia3.1/gaussian-rodinia-3.1/_s_16/reconfig.txt
Loaded 4 reconfiguration points
Scheduler count: 8, Specialized unit 0 width: 8
Scheduler count: 8, Specialized unit 1 width: 8
Scheduler count: 8, Specialized unit 2 width: 8
DEBUG: GPGPUSIM_RECONFIG_PATH=/accel-sim-framework/gpu-simulator/gpgpu-sim/configs/tested-cfgs/SM7_QV100/configs/rodinia3.1/gaussian-rodinia-3.1/_s_16/reconfig.txt
Loaded 4 reconfiguration points
Scheduler count: 8, Specialized unit 0 width: 8
Scheduler count: 8, Specialized unit 1 width: 8
Scheduler count: 8, Specialized unit 2 width: 8
DEBUG: GPGPUSIM_RECONFIG_PATH=/accel-sim-framework/gpu-simulator/gpgpu-sim/configs/tested-cfgs/SM7_QV100/configs/rodinia3.1/gaussian-rodinia-3.1/_s_16/reconfig.txt
Loaded 4 reconfiguration points
Scheduler count: 8, Specialized unit 0 width: 8
Scheduler count: 8, Specialized unit 1 width: 8
Scheduler count: 8, Specialized unit 2 width: 8
DEBUG: GPGPUSIM_RECONFIG_PATH=/accel-sim-framework/gpu-simulator/gpgpu-sim/configs/tested-cfgs/SM7_QV100/configs/rodinia3.1/gaussian-rodinia-3.1/_s_16/reconfig.txt
Loaded 4 reconfiguration points
Scheduler count: 8, Specialized unit 0 width: 8
Scheduler count: 8, Specialized unit 1 width: 8
Scheduler count: 8, Specialized unit 2 width: 8
DEBUG: GPGPUSIM_RECONFIG_PATH=/accel-sim-framework/gpu-simulator/gpgpu-sim/configs/tested-cfgs/SM7_QV100/configs/rodinia3.1/gaussian-rodinia-3.1/_s_16/reconfig.txt
Loaded 4 reconfiguration points
Scheduler count: 8, Specialized unit 0 width: 8
Scheduler count: 8, Specialized unit 1 width: 8
Scheduler count: 8, Specialized unit 2 width: 8
DEBUG: GPGPUSIM_RECONFIG_PATH=/accel-sim-framework/gpu-simulator/gpgpu-sim/configs/tested-cfgs/SM7_QV100/configs/rodinia3.1/gaussian-rodinia-3.1/_s_16/reconfig.txt
Loaded 4 reconfiguration points
Scheduler count: 8, Specialized unit 0 width: 8
Scheduler count: 8, Specialized unit 1 width: 8
Scheduler count: 8, Specialized unit 2 width: 8
DEBUG: GPGPUSIM_RECONFIG_PATH=/accel-sim-framework/gpu-simulator/gpgpu-sim/configs/tested-cfgs/SM7_QV100/configs/rodinia3.1/gaussian-rodinia-3.1/_s_16/reconfig.txt
Loaded 4 reconfiguration points
Scheduler count: 8, Specialized unit 0 width: 8
Scheduler count: 8, Specialized unit 1 width: 8
Scheduler count: 8, Specialized unit 2 width: 8
DEBUG: GPGPUSIM_RECONFIG_PATH=/accel-sim-framework/gpu-simulator/gpgpu-sim/configs/tested-cfgs/SM7_QV100/configs/rodinia3.1/gaussian-rodinia-3.1/_s_16/reconfig.txt
Loaded 4 reconfiguration points
Scheduler count: 8, Specialized unit 0 width: 8
Scheduler count: 8, Specialized unit 1 width: 8
Scheduler count: 8, Specialized unit 2 width: 8
DEBUG: GPGPUSIM_RECONFIG_PATH=/accel-sim-framework/gpu-simulator/gpgpu-sim/configs/tested-cfgs/SM7_QV100/configs/rodinia3.1/gaussian-rodinia-3.1/_s_16/reconfig.txt
Loaded 4 reconfiguration points
Scheduler count: 8, Specialized unit 0 width: 8
Scheduler count: 8, Specialized unit 1 width: 8
Scheduler count: 8, Specialized unit 2 width: 8
DEBUG: GPGPUSIM_RECONFIG_PATH=/accel-sim-framework/gpu-simulator/gpgpu-sim/configs/tested-cfgs/SM7_QV100/configs/rodinia3.1/gaussian-rodinia-3.1/_s_16/reconfig.txt
Loaded 4 reconfiguration points
Scheduler count: 8, Specialized unit 0 width: 8
Scheduler count: 8, Specialized unit 1 width: 8
Scheduler count: 8, Specialized unit 2 width: 8
DEBUG: GPGPUSIM_RECONFIG_PATH=/accel-sim-framework/gpu-simulator/gpgpu-sim/configs/tested-cfgs/SM7_QV100/configs/rodinia3.1/gaussian-rodinia-3.1/_s_16/reconfig.txt
Loaded 4 reconfiguration points
Scheduler count: 8, Specialized unit 0 width: 8
Scheduler count: 8, Specialized unit 1 width: 8
Scheduler count: 8, Specialized unit 2 width: 8
DEBUG: GPGPUSIM_RECONFIG_PATH=/accel-sim-framework/gpu-simulator/gpgpu-sim/configs/tested-cfgs/SM7_QV100/configs/rodinia3.1/gaussian-rodinia-3.1/_s_16/reconfig.txt
Loaded 4 reconfiguration points
Scheduler count: 8, Specialized unit 0 width: 8
Scheduler count: 8, Specialized unit 1 width: 8
Scheduler count: 8, Specialized unit 2 width: 8
DEBUG: GPGPUSIM_RECONFIG_PATH=/accel-sim-framework/gpu-simulator/gpgpu-sim/configs/tested-cfgs/SM7_QV100/configs/rodinia3.1/gaussian-rodinia-3.1/_s_16/reconfig.txt
Loaded 4 reconfiguration points
Scheduler count: 8, Specialized unit 0 width: 8
Scheduler count: 8, Specialized unit 1 width: 8
Scheduler count: 8, Specialized unit 2 width: 8
DEBUG: GPGPUSIM_RECONFIG_PATH=/accel-sim-framework/gpu-simulator/gpgpu-sim/configs/tested-cfgs/SM7_QV100/configs/rodinia3.1/gaussian-rodinia-3.1/_s_16/reconfig.txt
Loaded 4 reconfiguration points
Scheduler count: 8, Specialized unit 0 width: 8
Scheduler count: 8, Specialized unit 1 width: 8
Scheduler count: 8, Specialized unit 2 width: 8
DEBUG: GPGPUSIM_RECONFIG_PATH=/accel-sim-framework/gpu-simulator/gpgpu-sim/configs/tested-cfgs/SM7_QV100/configs/rodinia3.1/gaussian-rodinia-3.1/_s_16/reconfig.txt
Loaded 4 reconfiguration points
Scheduler count: 8, Specialized unit 0 width: 8
Scheduler count: 8, Specialized unit 1 width: 8
Scheduler count: 8, Specialized unit 2 width: 8
DEBUG: GPGPUSIM_RECONFIG_PATH=/accel-sim-framework/gpu-simulator/gpgpu-sim/configs/tested-cfgs/SM7_QV100/configs/rodinia3.1/gaussian-rodinia-3.1/_s_16/reconfig.txt
Loaded 4 reconfiguration points
Scheduler count: 8, Specialized unit 0 width: 8
Scheduler count: 8, Specialized unit 1 width: 8
Scheduler count: 8, Specialized unit 2 width: 8
DEBUG: GPGPUSIM_RECONFIG_PATH=/accel-sim-framework/gpu-simulator/gpgpu-sim/configs/tested-cfgs/SM7_QV100/configs/rodinia3.1/gaussian-rodinia-3.1/_s_16/reconfig.txt
Loaded 4 reconfiguration points
Scheduler count: 8, Specialized unit 0 width: 8
Scheduler count: 8, Specialized unit 1 width: 8
Scheduler count: 8, Specialized unit 2 width: 8
DEBUG: GPGPUSIM_RECONFIG_PATH=/accel-sim-framework/gpu-simulator/gpgpu-sim/configs/tested-cfgs/SM7_QV100/configs/rodinia3.1/gaussian-rodinia-3.1/_s_16/reconfig.txt
Loaded 4 reconfiguration points
Scheduler count: 8, Specialized unit 0 width: 8
Scheduler count: 8, Specialized unit 1 width: 8
Scheduler count: 8, Specialized unit 2 width: 8
DEBUG: GPGPUSIM_RECONFIG_PATH=/accel-sim-framework/gpu-simulator/gpgpu-sim/configs/tested-cfgs/SM7_QV100/configs/rodinia3.1/gaussian-rodinia-3.1/_s_16/reconfig.txt
Loaded 4 reconfiguration points
Scheduler count: 8, Specialized unit 0 width: 8
Scheduler count: 8, Specialized unit 1 width: 8
Scheduler count: 8, Specialized unit 2 width: 8
DEBUG: GPGPUSIM_RECONFIG_PATH=/accel-sim-framework/gpu-simulator/gpgpu-sim/configs/tested-cfgs/SM7_QV100/configs/rodinia3.1/gaussian-rodinia-3.1/_s_16/reconfig.txt
Loaded 4 reconfiguration points
Scheduler count: 8, Specialized unit 0 width: 8
Scheduler count: 8, Specialized unit 1 width: 8
Scheduler count: 8, Specialized unit 2 width: 8
DEBUG: GPGPUSIM_RECONFIG_PATH=/accel-sim-framework/gpu-simulator/gpgpu-sim/configs/tested-cfgs/SM7_QV100/configs/rodinia3.1/gaussian-rodinia-3.1/_s_16/reconfig.txt
Loaded 4 reconfiguration points
Scheduler count: 8, Specialized unit 0 width: 8
Scheduler count: 8, Specialized unit 1 width: 8
Scheduler count: 8, Specialized unit 2 width: 8
DEBUG: GPGPUSIM_RECONFIG_PATH=/accel-sim-framework/gpu-simulator/gpgpu-sim/configs/tested-cfgs/SM7_QV100/configs/rodinia3.1/gaussian-rodinia-3.1/_s_16/reconfig.txt
Loaded 4 reconfiguration points
Scheduler count: 8, Specialized unit 0 width: 8
Scheduler count: 8, Specialized unit 1 width: 8
Scheduler count: 8, Specialized unit 2 width: 8
DEBUG: GPGPUSIM_RECONFIG_PATH=/accel-sim-framework/gpu-simulator/gpgpu-sim/configs/tested-cfgs/SM7_QV100/configs/rodinia3.1/gaussian-rodinia-3.1/_s_16/reconfig.txt
Loaded 4 reconfiguration points
Scheduler count: 8, Specialized unit 0 width: 8
Scheduler count: 8, Specialized unit 1 width: 8
Scheduler count: 8, Specialized unit 2 width: 8
DEBUG: GPGPUSIM_RECONFIG_PATH=/accel-sim-framework/gpu-simulator/gpgpu-sim/configs/tested-cfgs/SM7_QV100/configs/rodinia3.1/gaussian-rodinia-3.1/_s_16/reconfig.txt
Loaded 4 reconfiguration points
Scheduler count: 8, Specialized unit 0 width: 8
Scheduler count: 8, Specialized unit 1 width: 8
Scheduler count: 8, Specialized unit 2 width: 8
DEBUG: GPGPUSIM_RECONFIG_PATH=/accel-sim-framework/gpu-simulator/gpgpu-sim/configs/tested-cfgs/SM7_QV100/configs/rodinia3.1/gaussian-rodinia-3.1/_s_16/reconfig.txt
Loaded 4 reconfiguration points
Scheduler count: 8, Specialized unit 0 width: 8
Scheduler count: 8, Specialized unit 1 width: 8
Scheduler count: 8, Specialized unit 2 width: 8
DEBUG: GPGPUSIM_RECONFIG_PATH=/accel-sim-framework/gpu-simulator/gpgpu-sim/configs/tested-cfgs/SM7_QV100/configs/rodinia3.1/gaussian-rodinia-3.1/_s_16/reconfig.txt
Loaded 4 reconfiguration points
Scheduler count: 8, Specialized unit 0 width: 8
Scheduler count: 8, Specialized unit 1 width: 8
Scheduler count: 8, Specialized unit 2 width: 8
DEBUG: GPGPUSIM_RECONFIG_PATH=/accel-sim-framework/gpu-simulator/gpgpu-sim/configs/tested-cfgs/SM7_QV100/configs/rodinia3.1/gaussian-rodinia-3.1/_s_16/reconfig.txt
Loaded 4 reconfiguration points
Scheduler count: 8, Specialized unit 0 width: 8
Scheduler count: 8, Specialized unit 1 width: 8
Scheduler count: 8, Specialized unit 2 width: 8
DEBUG: GPGPUSIM_RECONFIG_PATH=/accel-sim-framework/gpu-simulator/gpgpu-sim/configs/tested-cfgs/SM7_QV100/configs/rodinia3.1/gaussian-rodinia-3.1/_s_16/reconfig.txt
Loaded 4 reconfiguration points
Scheduler count: 8, Specialized unit 0 width: 8
Scheduler count: 8, Specialized unit 1 width: 8
Scheduler count: 8, Specialized unit 2 width: 8
DEBUG: GPGPUSIM_RECONFIG_PATH=/accel-sim-framework/gpu-simulator/gpgpu-sim/configs/tested-cfgs/SM7_QV100/configs/rodinia3.1/gaussian-rodinia-3.1/_s_16/reconfig.txt
Loaded 4 reconfiguration points
Scheduler count: 8, Specialized unit 0 width: 8
Scheduler count: 8, Specialized unit 1 width: 8
Scheduler count: 8, Specialized unit 2 width: 8
DEBUG: GPGPUSIM_RECONFIG_PATH=/accel-sim-framework/gpu-simulator/gpgpu-sim/configs/tested-cfgs/SM7_QV100/configs/rodinia3.1/gaussian-rodinia-3.1/_s_16/reconfig.txt
Loaded 4 reconfiguration points
Scheduler count: 8, Specialized unit 0 width: 8
Scheduler count: 8, Specialized unit 1 width: 8
Scheduler count: 8, Specialized unit 2 width: 8
DEBUG: GPGPUSIM_RECONFIG_PATH=/accel-sim-framework/gpu-simulator/gpgpu-sim/configs/tested-cfgs/SM7_QV100/configs/rodinia3.1/gaussian-rodinia-3.1/_s_16/reconfig.txt
Loaded 4 reconfiguration points
Scheduler count: 8, Specialized unit 0 width: 8
Scheduler count: 8, Specialized unit 1 width: 8
Scheduler count: 8, Specialized unit 2 width: 8
DEBUG: GPGPUSIM_RECONFIG_PATH=/accel-sim-framework/gpu-simulator/gpgpu-sim/configs/tested-cfgs/SM7_QV100/configs/rodinia3.1/gaussian-rodinia-3.1/_s_16/reconfig.txt
Loaded 4 reconfiguration points
Scheduler count: 8, Specialized unit 0 width: 8
Scheduler count: 8, Specialized unit 1 width: 8
Scheduler count: 8, Specialized unit 2 width: 8
DEBUG: GPGPUSIM_RECONFIG_PATH=/accel-sim-framework/gpu-simulator/gpgpu-sim/configs/tested-cfgs/SM7_QV100/configs/rodinia3.1/gaussian-rodinia-3.1/_s_16/reconfig.txt
Loaded 4 reconfiguration points
Scheduler count: 8, Specialized unit 0 width: 8
Scheduler count: 8, Specialized unit 1 width: 8
Scheduler count: 8, Specialized unit 2 width: 8
DEBUG: GPGPUSIM_RECONFIG_PATH=/accel-sim-framework/gpu-simulator/gpgpu-sim/configs/tested-cfgs/SM7_QV100/configs/rodinia3.1/gaussian-rodinia-3.1/_s_16/reconfig.txt
Loaded 4 reconfiguration points
Scheduler count: 8, Specialized unit 0 width: 8
Scheduler count: 8, Specialized unit 1 width: 8
Scheduler count: 8, Specialized unit 2 width: 8
DEBUG: GPGPUSIM_RECONFIG_PATH=/accel-sim-framework/gpu-simulator/gpgpu-sim/configs/tested-cfgs/SM7_QV100/configs/rodinia3.1/gaussian-rodinia-3.1/_s_16/reconfig.txt
Loaded 4 reconfiguration points
Scheduler count: 8, Specialized unit 0 width: 8
Scheduler count: 8, Specialized unit 1 width: 8
Scheduler count: 8, Specialized unit 2 width: 8
DEBUG: GPGPUSIM_RECONFIG_PATH=/accel-sim-framework/gpu-simulator/gpgpu-sim/configs/tested-cfgs/SM7_QV100/configs/rodinia3.1/gaussian-rodinia-3.1/_s_16/reconfig.txt
Loaded 4 reconfiguration points
Scheduler count: 8, Specialized unit 0 width: 8
Scheduler count: 8, Specialized unit 1 width: 8
Scheduler count: 8, Specialized unit 2 width: 8
DEBUG: GPGPUSIM_RECONFIG_PATH=/accel-sim-framework/gpu-simulator/gpgpu-sim/configs/tested-cfgs/SM7_QV100/configs/rodinia3.1/gaussian-rodinia-3.1/_s_16/reconfig.txt
Loaded 4 reconfiguration points
Scheduler count: 8, Specialized unit 0 width: 8
Scheduler count: 8, Specialized unit 1 width: 8
Scheduler count: 8, Specialized unit 2 width: 8
DEBUG: GPGPUSIM_RECONFIG_PATH=/accel-sim-framework/gpu-simulator/gpgpu-sim/configs/tested-cfgs/SM7_QV100/configs/rodinia3.1/gaussian-rodinia-3.1/_s_16/reconfig.txt
Loaded 4 reconfiguration points
Scheduler count: 8, Specialized unit 0 width: 8
Scheduler count: 8, Specialized unit 1 width: 8
Scheduler count: 8, Specialized unit 2 width: 8
DEBUG: GPGPUSIM_RECONFIG_PATH=/accel-sim-framework/gpu-simulator/gpgpu-sim/configs/tested-cfgs/SM7_QV100/configs/rodinia3.1/gaussian-rodinia-3.1/_s_16/reconfig.txt
Loaded 4 reconfiguration points
Scheduler count: 8, Specialized unit 0 width: 8
Scheduler count: 8, Specialized unit 1 width: 8
Scheduler count: 8, Specialized unit 2 width: 8
DEBUG: GPGPUSIM_RECONFIG_PATH=/accel-sim-framework/gpu-simulator/gpgpu-sim/configs/tested-cfgs/SM7_QV100/configs/rodinia3.1/gaussian-rodinia-3.1/_s_16/reconfig.txt
Loaded 4 reconfiguration points
Scheduler count: 8, Specialized unit 0 width: 8
Scheduler count: 8, Specialized unit 1 width: 8
Scheduler count: 8, Specialized unit 2 width: 8
DEBUG: GPGPUSIM_RECONFIG_PATH=/accel-sim-framework/gpu-simulator/gpgpu-sim/configs/tested-cfgs/SM7_QV100/configs/rodinia3.1/gaussian-rodinia-3.1/_s_16/reconfig.txt
Loaded 4 reconfiguration points
Scheduler count: 8, Specialized unit 0 width: 8
Scheduler count: 8, Specialized unit 1 width: 8
Scheduler count: 8, Specialized unit 2 width: 8
DEBUG: GPGPUSIM_RECONFIG_PATH=/accel-sim-framework/gpu-simulator/gpgpu-sim/configs/tested-cfgs/SM7_QV100/configs/rodinia3.1/gaussian-rodinia-3.1/_s_16/reconfig.txt
Loaded 4 reconfiguration points
Scheduler count: 8, Specialized unit 0 width: 8
Scheduler count: 8, Specialized unit 1 width: 8
Scheduler count: 8, Specialized unit 2 width: 8
DEBUG: GPGPUSIM_RECONFIG_PATH=/accel-sim-framework/gpu-simulator/gpgpu-sim/configs/tested-cfgs/SM7_QV100/configs/rodinia3.1/gaussian-rodinia-3.1/_s_16/reconfig.txt
Loaded 4 reconfiguration points
Scheduler count: 8, Specialized unit 0 width: 8
Scheduler count: 8, Specialized unit 1 width: 8
Scheduler count: 8, Specialized unit 2 width: 8
DEBUG: GPGPUSIM_RECONFIG_PATH=/accel-sim-framework/gpu-simulator/gpgpu-sim/configs/tested-cfgs/SM7_QV100/configs/rodinia3.1/gaussian-rodinia-3.1/_s_16/reconfig.txt
Loaded 4 reconfiguration points
Scheduler count: 8, Specialized unit 0 width: 8
Scheduler count: 8, Specialized unit 1 width: 8
Scheduler count: 8, Specialized unit 2 width: 8
DEBUG: GPGPUSIM_RECONFIG_PATH=/accel-sim-framework/gpu-simulator/gpgpu-sim/configs/tested-cfgs/SM7_QV100/configs/rodinia3.1/gaussian-rodinia-3.1/_s_16/reconfig.txt
Loaded 4 reconfiguration points
Scheduler count: 8, Specialized unit 0 width: 8
Scheduler count: 8, Specialized unit 1 width: 8
Scheduler count: 8, Specialized unit 2 width: 8
DEBUG: GPGPUSIM_RECONFIG_PATH=/accel-sim-framework/gpu-simulator/gpgpu-sim/configs/tested-cfgs/SM7_QV100/configs/rodinia3.1/gaussian-rodinia-3.1/_s_16/reconfig.txt
Loaded 4 reconfiguration points
Scheduler count: 8, Specialized unit 0 width: 8
Scheduler count: 8, Specialized unit 1 width: 8
Scheduler count: 8, Specialized unit 2 width: 8
DEBUG: GPGPUSIM_RECONFIG_PATH=/accel-sim-framework/gpu-simulator/gpgpu-sim/configs/tested-cfgs/SM7_QV100/configs/rodinia3.1/gaussian-rodinia-3.1/_s_16/reconfig.txt
Loaded 4 reconfiguration points
Scheduler count: 8, Specialized unit 0 width: 8
Scheduler count: 8, Specialized unit 1 width: 8
Scheduler count: 8, Specialized unit 2 width: 8
DEBUG: GPGPUSIM_RECONFIG_PATH=/accel-sim-framework/gpu-simulator/gpgpu-sim/configs/tested-cfgs/SM7_QV100/configs/rodinia3.1/gaussian-rodinia-3.1/_s_16/reconfig.txt
Loaded 4 reconfiguration points
Scheduler count: 8, Specialized unit 0 width: 8
Scheduler count: 8, Specialized unit 1 width: 8
Scheduler count: 8, Specialized unit 2 width: 8
DEBUG: GPGPUSIM_RECONFIG_PATH=/accel-sim-framework/gpu-simulator/gpgpu-sim/configs/tested-cfgs/SM7_QV100/configs/rodinia3.1/gaussian-rodinia-3.1/_s_16/reconfig.txt
Loaded 4 reconfiguration points
Scheduler count: 8, Specialized unit 0 width: 8
Scheduler count: 8, Specialized unit 1 width: 8
Scheduler count: 8, Specialized unit 2 width: 8
DEBUG: GPGPUSIM_RECONFIG_PATH=/accel-sim-framework/gpu-simulator/gpgpu-sim/configs/tested-cfgs/SM7_QV100/configs/rodinia3.1/gaussian-rodinia-3.1/_s_16/reconfig.txt
Loaded 4 reconfiguration points
Scheduler count: 8, Specialized unit 0 width: 8
Scheduler count: 8, Specialized unit 1 width: 8
Scheduler count: 8, Specialized unit 2 width: 8
DEBUG: GPGPUSIM_RECONFIG_PATH=/accel-sim-framework/gpu-simulator/gpgpu-sim/configs/tested-cfgs/SM7_QV100/configs/rodinia3.1/gaussian-rodinia-3.1/_s_16/reconfig.txt
Loaded 4 reconfiguration points
Scheduler count: 8, Specialized unit 0 width: 8
Scheduler count: 8, Specialized unit 1 width: 8
Scheduler count: 8, Specialized unit 2 width: 8
DEBUG: GPGPUSIM_RECONFIG_PATH=/accel-sim-framework/gpu-simulator/gpgpu-sim/configs/tested-cfgs/SM7_QV100/configs/rodinia3.1/gaussian-rodinia-3.1/_s_16/reconfig.txt
Loaded 4 reconfiguration points
Scheduler count: 8, Specialized unit 0 width: 8
Scheduler count: 8, Specialized unit 1 width: 8
Scheduler count: 8, Specialized unit 2 width: 8
DEBUG: GPGPUSIM_RECONFIG_PATH=/accel-sim-framework/gpu-simulator/gpgpu-sim/configs/tested-cfgs/SM7_QV100/configs/rodinia3.1/gaussian-rodinia-3.1/_s_16/reconfig.txt
Loaded 4 reconfiguration points
Scheduler count: 8, Specialized unit 0 width: 8
Scheduler count: 8, Specialized unit 1 width: 8
Scheduler count: 8, Specialized unit 2 width: 8
DEBUG: GPGPUSIM_RECONFIG_PATH=/accel-sim-framework/gpu-simulator/gpgpu-sim/configs/tested-cfgs/SM7_QV100/configs/rodinia3.1/gaussian-rodinia-3.1/_s_16/reconfig.txt
Loaded 4 reconfiguration points
Scheduler count: 8, Specialized unit 0 width: 8
Scheduler count: 8, Specialized unit 1 width: 8
Scheduler count: 8, Specialized unit 2 width: 8
DEBUG: GPGPUSIM_RECONFIG_PATH=/accel-sim-framework/gpu-simulator/gpgpu-sim/configs/tested-cfgs/SM7_QV100/configs/rodinia3.1/gaussian-rodinia-3.1/_s_16/reconfig.txt
Loaded 4 reconfiguration points
Scheduler count: 8, Specialized unit 0 width: 8
Scheduler count: 8, Specialized unit 1 width: 8
Scheduler count: 8, Specialized unit 2 width: 8
DEBUG: GPGPUSIM_RECONFIG_PATH=/accel-sim-framework/gpu-simulator/gpgpu-sim/configs/tested-cfgs/SM7_QV100/configs/rodinia3.1/gaussian-rodinia-3.1/_s_16/reconfig.txt
Loaded 4 reconfiguration points
Scheduler count: 8, Specialized unit 0 width: 8
Scheduler count: 8, Specialized unit 1 width: 8
Scheduler count: 8, Specialized unit 2 width: 8
DEBUG: GPGPUSIM_RECONFIG_PATH=/accel-sim-framework/gpu-simulator/gpgpu-sim/configs/tested-cfgs/SM7_QV100/configs/rodinia3.1/gaussian-rodinia-3.1/_s_16/reconfig.txt
Loaded 4 reconfiguration points
Scheduler count: 8, Specialized unit 0 width: 8
Scheduler count: 8, Specialized unit 1 width: 8
Scheduler count: 8, Specialized unit 2 width: 8
DEBUG: GPGPUSIM_RECONFIG_PATH=/accel-sim-framework/gpu-simulator/gpgpu-sim/configs/tested-cfgs/SM7_QV100/configs/rodinia3.1/gaussian-rodinia-3.1/_s_16/reconfig.txt
Loaded 4 reconfiguration points
Scheduler count: 8, Specialized unit 0 width: 8
Scheduler count: 8, Specialized unit 1 width: 8
Scheduler count: 8, Specialized unit 2 width: 8
DEBUG: GPGPUSIM_RECONFIG_PATH=/accel-sim-framework/gpu-simulator/gpgpu-sim/configs/tested-cfgs/SM7_QV100/configs/rodinia3.1/gaussian-rodinia-3.1/_s_16/reconfig.txt
Loaded 4 reconfiguration points
Scheduler count: 8, Specialized unit 0 width: 8
Scheduler count: 8, Specialized unit 1 width: 8
Scheduler count: 8, Specialized unit 2 width: 8
DEBUG: GPGPUSIM_RECONFIG_PATH=/accel-sim-framework/gpu-simulator/gpgpu-sim/configs/tested-cfgs/SM7_QV100/configs/rodinia3.1/gaussian-rodinia-3.1/_s_16/reconfig.txt
Loaded 4 reconfiguration points
Scheduler count: 8, Specialized unit 0 width: 8
Scheduler count: 8, Specialized unit 1 width: 8
Scheduler count: 8, Specialized unit 2 width: 8
DEBUG: GPGPUSIM_RECONFIG_PATH=/accel-sim-framework/gpu-simulator/gpgpu-sim/configs/tested-cfgs/SM7_QV100/configs/rodinia3.1/gaussian-rodinia-3.1/_s_16/reconfig.txt
Loaded 4 reconfiguration points
Scheduler count: 8, Specialized unit 0 width: 8
Scheduler count: 8, Specialized unit 1 width: 8
Scheduler count: 8, Specialized unit 2 width: 8
DEBUG: GPGPUSIM_RECONFIG_PATH=/accel-sim-framework/gpu-simulator/gpgpu-sim/configs/tested-cfgs/SM7_QV100/configs/rodinia3.1/gaussian-rodinia-3.1/_s_16/reconfig.txt
Loaded 4 reconfiguration points
Scheduler count: 8, Specialized unit 0 width: 8
Scheduler count: 8, Specialized unit 1 width: 8
Scheduler count: 8, Specialized unit 2 width: 8
DEBUG: GPGPUSIM_RECONFIG_PATH=/accel-sim-framework/gpu-simulator/gpgpu-sim/configs/tested-cfgs/SM7_QV100/configs/rodinia3.1/gaussian-rodinia-3.1/_s_16/reconfig.txt
Loaded 4 reconfiguration points
Scheduler count: 8, Specialized unit 0 width: 8
Scheduler count: 8, Specialized unit 1 width: 8
Scheduler count: 8, Specialized unit 2 width: 8
DEBUG: GPGPUSIM_RECONFIG_PATH=/accel-sim-framework/gpu-simulator/gpgpu-sim/configs/tested-cfgs/SM7_QV100/configs/rodinia3.1/gaussian-rodinia-3.1/_s_16/reconfig.txt
Loaded 4 reconfiguration points
Scheduler count: 8, Specialized unit 0 width: 8
Scheduler count: 8, Specialized unit 1 width: 8
Scheduler count: 8, Specialized unit 2 width: 8
DEBUG: GPGPUSIM_RECONFIG_PATH=/accel-sim-framework/gpu-simulator/gpgpu-sim/configs/tested-cfgs/SM7_QV100/configs/rodinia3.1/gaussian-rodinia-3.1/_s_16/reconfig.txt
Loaded 4 reconfiguration points
Scheduler count: 8, Specialized unit 0 width: 8
Scheduler count: 8, Specialized unit 1 width: 8
Scheduler count: 8, Specialized unit 2 width: 8
DEBUG: GPGPUSIM_RECONFIG_PATH=/accel-sim-framework/gpu-simulator/gpgpu-sim/configs/tested-cfgs/SM7_QV100/configs/rodinia3.1/gaussian-rodinia-3.1/_s_16/reconfig.txt
Loaded 4 reconfiguration points
Scheduler count: 8, Specialized unit 0 width: 8
Scheduler count: 8, Specialized unit 1 width: 8
Scheduler count: 8, Specialized unit 2 width: 8
DEBUG: GPGPUSIM_RECONFIG_PATH=/accel-sim-framework/gpu-simulator/gpgpu-sim/configs/tested-cfgs/SM7_QV100/configs/rodinia3.1/gaussian-rodinia-3.1/_s_16/reconfig.txt
Loaded 4 reconfiguration points
Scheduler count: 8, Specialized unit 0 width: 8
Scheduler count: 8, Specialized unit 1 width: 8
Scheduler count: 8, Specialized unit 2 width: 8
DEBUG: GPGPUSIM_RECONFIG_PATH=/accel-sim-framework/gpu-simulator/gpgpu-sim/configs/tested-cfgs/SM7_QV100/configs/rodinia3.1/gaussian-rodinia-3.1/_s_16/reconfig.txt
Loaded 4 reconfiguration points
Scheduler count: 8, Specialized unit 0 width: 8
Scheduler count: 8, Specialized unit 1 width: 8
Scheduler count: 8, Specialized unit 2 width: 8
DEBUG: GPGPUSIM_RECONFIG_PATH=/accel-sim-framework/gpu-simulator/gpgpu-sim/configs/tested-cfgs/SM7_QV100/configs/rodinia3.1/gaussian-rodinia-3.1/_s_16/reconfig.txt
Loaded 4 reconfiguration points
Scheduler count: 8, Specialized unit 0 width: 8
Scheduler count: 8, Specialized unit 1 width: 8
Scheduler count: 8, Specialized unit 2 width: 8
DEBUG: GPGPUSIM_RECONFIG_PATH=/accel-sim-framework/gpu-simulator/gpgpu-sim/configs/tested-cfgs/SM7_QV100/configs/rodinia3.1/gaussian-rodinia-3.1/_s_16/reconfig.txt
Loaded 4 reconfiguration points
Scheduler count: 8, Specialized unit 0 width: 8
Scheduler count: 8, Specialized unit 1 width: 8
Scheduler count: 8, Specialized unit 2 width: 8
DEBUG: GPGPUSIM_RECONFIG_PATH=/accel-sim-framework/gpu-simulator/gpgpu-sim/configs/tested-cfgs/SM7_QV100/configs/rodinia3.1/gaussian-rodinia-3.1/_s_16/reconfig.txt
Loaded 4 reconfiguration points
Scheduler count: 8, Specialized unit 0 width: 8
Scheduler count: 8, Specialized unit 1 width: 8
Scheduler count: 8, Specialized unit 2 width: 8
DEBUG: GPGPUSIM_RECONFIG_PATH=/accel-sim-framework/gpu-simulator/gpgpu-sim/configs/tested-cfgs/SM7_QV100/configs/rodinia3.1/gaussian-rodinia-3.1/_s_16/reconfig.txt
Loaded 4 reconfiguration points
Scheduler count: 8, Specialized unit 0 width: 8
Scheduler count: 8, Specialized unit 1 width: 8
Scheduler count: 8, Specialized unit 2 width: 8
DEBUG: GPGPUSIM_RECONFIG_PATH=/accel-sim-framework/gpu-simulator/gpgpu-sim/configs/tested-cfgs/SM7_QV100/configs/rodinia3.1/gaussian-rodinia-3.1/_s_16/reconfig.txt
Loaded 4 reconfiguration points
Scheduler count: 8, Specialized unit 0 width: 8
Scheduler count: 8, Specialized unit 1 width: 8
Scheduler count: 8, Specialized unit 2 width: 8
DEBUG: GPGPUSIM_RECONFIG_PATH=/accel-sim-framework/gpu-simulator/gpgpu-sim/configs/tested-cfgs/SM7_QV100/configs/rodinia3.1/gaussian-rodinia-3.1/_s_16/reconfig.txt
Loaded 4 reconfiguration points
Scheduler count: 8, Specialized unit 0 width: 8
Scheduler count: 8, Specialized unit 1 width: 8
Scheduler count: 8, Specialized unit 2 width: 8
launching memcpy command : MemcpyHtoD,0x00007f1553700000,1024
launching memcpy command : MemcpyHtoD,0x00007f1553700400,1024
launching memcpy command : MemcpyHtoD,0x00007f1553700800,64
Processing kernel ./traces/kernel-1.traceg
-kernel name = _Z4Fan1PfS_ii
-kernel id = 1
-grid dim = (1,1,1)
-block dim = (128,1,1)
-shmem = 0
-nregs = 17
-binary version = 70
-cuda stream id = 0
-shmem base_addr = 0x00007f158a000000
-local mem base_addr = 0x00007f1588000000
-nvbit version = 1.5.3
-accelsim tracer version = 3
Header info loaded for kernel command : ./traces/kernel-1.traceg
launching kernel name: _Z4Fan1PfS_ii uid: 1 cuda_stream_id: 0
Parsed units from /accel-sim-framework/gpu-simulator/gpgpu-sim/configs/tested-cfgs/SM7_QV100/config1.config: SP=4 SFU=4 DP=4 INT=4 TENSOR=4 SCHEDULERS=4
 Switched config files:
  /accel-sim-framework/gpu-simulator/gpgpu-sim/configs/tested-cfgs/SM7_QV100/configs/rodinia3.1/gaussian-rodinia-3.1/_s_16/gpgpusim.config
  /accel-sim-framework/gpu-simulator/configs/tested-cfgs/SM7_QV100/configs/rodinia3.1/gaussian-rodinia-3.1/_s_16/trace.config
========================================================
 RECONFIGURATION TRIGGERED at instruction 0
 Target: SP units=4, latency=13
 Stalling dispatch on all cores...
Parsed units from /accel-sim-framework/gpu-simulator/gpgpu-sim/configs/tested-cfgs/SM7_QV100/config1.config: SP=4 SFU=4 DP=4 INT=4 TENSOR=4 SCHEDULERS=4
 Switched config files:
  /accel-sim-framework/gpu-simulator/gpgpu-sim/configs/tested-cfgs/SM7_QV100/configs/rodinia3.1/gaussian-rodinia-3.1/_s_16/gpgpusim.config
  /accel-sim-framework/gpu-simulator/configs/tested-cfgs/SM7_QV100/configs/rodinia3.1/gaussian-rodinia-3.1/_s_16/trace.config
 All 80 cores drained after 1 cycles
 Starting reconfiguration on all cores...
Core 0: Reconfigured SP units to 4 (latency: 13)
Core 0: Created 4 schedulers
Core 1: Reconfigured SP units to 4 (latency: 13)
Core 1: Created 4 schedulers
Core 2: Reconfigured SP units to 4 (latency: 13)
Core 2: Created 4 schedulers
Core 3: Reconfigured SP units to 4 (latency: 13)
Core 3: Created 4 schedulers
Core 4: Reconfigured SP units to 4 (latency: 13)
Core 4: Created 4 schedulers
Core 5: Reconfigured SP units to 4 (latency: 13)
Core 5: Created 4 schedulers
Core 6: Reconfigured SP units to 4 (latency: 13)
Core 6: Created 4 schedulers
Core 7: Reconfigured SP units to 4 (latency: 13)
Core 7: Created 4 schedulers
Core 8: Reconfigured SP units to 4 (latency: 13)
Core 8: Created 4 schedulers
Core 9: Reconfigured SP units to 4 (latency: 13)
Core 9: Created 4 schedulers
Core 10: Reconfigured SP units to 4 (latency: 13)
Core 10: Created 4 schedulers
Core 11: Reconfigured SP units to 4 (latency: 13)
Core 11: Created 4 schedulers
Core 12: Reconfigured SP units to 4 (latency: 13)
Core 12: Created 4 schedulers
Core 13: Reconfigured SP units to 4 (latency: 13)
Core 13: Created 4 schedulers
Core 14: Reconfigured SP units to 4 (latency: 13)
Core 14: Created 4 schedulers
Core 15: Reconfigured SP units to 4 (latency: 13)
Core 15: Created 4 schedulers
Core 16: Reconfigured SP units to 4 (latency: 13)
Core 16: Created 4 schedulers
Core 17: Reconfigured SP units to 4 (latency: 13)
Core 17: Created 4 schedulers
Core 18: Reconfigured SP units to 4 (latency: 13)
Core 18: Created 4 schedulers
Core 19: Reconfigured SP units to 4 (latency: 13)
Core 19: Created 4 schedulers
Core 20: Reconfigured SP units to 4 (latency: 13)
Core 20: Created 4 schedulers
Core 21: Reconfigured SP units to 4 (latency: 13)
Core 21: Created 4 schedulers
Core 22: Reconfigured SP units to 4 (latency: 13)
Core 22: Created 4 schedulers
Core 23: Reconfigured SP units to 4 (latency: 13)
Core 23: Created 4 schedulers
Core 24: Reconfigured SP units to 4 (latency: 13)
Core 24: Created 4 schedulers
Core 25: Reconfigured SP units to 4 (latency: 13)
Core 25: Created 4 schedulers
Core 26: Reconfigured SP units to 4 (latency: 13)
Core 26: Created 4 schedulers
Core 27: Reconfigured SP units to 4 (latency: 13)
Core 27: Created 4 schedulers
Core 28: Reconfigured SP units to 4 (latency: 13)
Core 28: Created 4 schedulers
Core 29: Reconfigured SP units to 4 (latency: 13)
Core 29: Created 4 schedulers
Core 30: Reconfigured SP units to 4 (latency: 13)
Core 30: Created 4 schedulers
Core 31: Reconfigured SP units to 4 (latency: 13)
Core 31: Created 4 schedulers
Core 32: Reconfigured SP units to 4 (latency: 13)
Core 32: Created 4 schedulers
Core 33: Reconfigured SP units to 4 (latency: 13)
Core 33: Created 4 schedulers
Core 34: Reconfigured SP units to 4 (latency: 13)
Core 34: Created 4 schedulers
Core 35: Reconfigured SP units to 4 (latency: 13)
Core 35: Created 4 schedulers
Core 36: Reconfigured SP units to 4 (latency: 13)
Core 36: Created 4 schedulers
Core 37: Reconfigured SP units to 4 (latency: 13)
Core 37: Created 4 schedulers
Core 38: Reconfigured SP units to 4 (latency: 13)
Core 38: Created 4 schedulers
Core 39: Reconfigured SP units to 4 (latency: 13)
Core 39: Created 4 schedulers
Core 40: Reconfigured SP units to 4 (latency: 13)
Core 40: Created 4 schedulers
Core 41: Reconfigured SP units to 4 (latency: 13)
Core 41: Created 4 schedulers
Core 42: Reconfigured SP units to 4 (latency: 13)
Core 42: Created 4 schedulers
Core 43: Reconfigured SP units to 4 (latency: 13)
Core 43: Created 4 schedulers
Core 44: Reconfigured SP units to 4 (latency: 13)
Core 44: Created 4 schedulers
Core 45: Reconfigured SP units to 4 (latency: 13)
Core 45: Created 4 schedulers
Core 46: Reconfigured SP units to 4 (latency: 13)
Core 46: Created 4 schedulers
Core 47: Reconfigured SP units to 4 (latency: 13)
Core 47: Created 4 schedulers
Core 48: Reconfigured SP units to 4 (latency: 13)
Core 48: Created 4 schedulers
Core 49: Reconfigured SP units to 4 (latency: 13)
Core 49: Created 4 schedulers
Core 50: Reconfigured SP units to 4 (latency: 13)
Core 50: Created 4 schedulers
Core 51: Reconfigured SP units to 4 (latency: 13)
Core 51: Created 4 schedulers
Core 52: Reconfigured SP units to 4 (latency: 13)
Core 52: Created 4 schedulers
Core 53: Reconfigured SP units to 4 (latency: 13)
Core 53: Created 4 schedulers
Core 54: Reconfigured SP units to 4 (latency: 13)
Core 54: Created 4 schedulers
Core 55: Reconfigured SP units to 4 (latency: 13)
Core 55: Created 4 schedulers
Core 56: Reconfigured SP units to 4 (latency: 13)
Core 56: Created 4 schedulers
Core 57: Reconfigured SP units to 4 (latency: 13)
Core 57: Created 4 schedulers
Core 58: Reconfigured SP units to 4 (latency: 13)
Core 58: Created 4 schedulers
Core 59: Reconfigured SP units to 4 (latency: 13)
Core 59: Created 4 schedulers
Core 60: Reconfigured SP units to 4 (latency: 13)
Core 60: Created 4 schedulers
Core 61: Reconfigured SP units to 4 (latency: 13)
Core 61: Created 4 schedulers
Core 62: Reconfigured SP units to 4 (latency: 13)
Core 62: Created 4 schedulers
Core 63: Reconfigured SP units to 4 (latency: 13)
Core 63: Created 4 schedulers
Core 64: Reconfigured SP units to 4 (latency: 13)
Core 64: Created 4 schedulers
Core 65: Reconfigured SP units to 4 (latency: 13)
Core 65: Created 4 schedulers
Core 66: Reconfigured SP units to 4 (latency: 13)
Core 66: Created 4 schedulers
Core 67: Reconfigured SP units to 4 (latency: 13)
Core 67: Created 4 schedulers
Core 68: Reconfigured SP units to 4 (latency: 13)
Core 68: Created 4 schedulers
Core 69: Reconfigured SP units to 4 (latency: 13)
Core 69: Created 4 schedulers
Core 70: Reconfigured SP units to 4 (latency: 13)
Core 70: Created 4 schedulers
Core 71: Reconfigured SP units to 4 (latency: 13)
Core 71: Created 4 schedulers
Core 72: Reconfigured SP units to 4 (latency: 13)
Core 72: Created 4 schedulers
Core 73: Reconfigured SP units to 4 (latency: 13)
Core 73: Created 4 schedulers
Core 74: Reconfigured SP units to 4 (latency: 13)
Core 74: Created 4 schedulers
Core 75: Reconfigured SP units to 4 (latency: 13)
Core 75: Created 4 schedulers
Core 76: Reconfigured SP units to 4 (latency: 13)
Core 76: Created 4 schedulers
Core 77: Reconfigured SP units to 4 (latency: 13)
Core 77: Created 4 schedulers
Core 78: Reconfigured SP units to 4 (latency: 13)
Core 78: Created 4 schedulers
Core 79: Reconfigured SP units to 4 (latency: 13)
Core 79: Created 4 schedulers
 Reconfiguration completed on all cores
========================================================

GPGPU-Sim uArch: Shader 0 bind to kernel 1 '_Z4Fan1PfS_ii'
GPGPU-Sim uArch: CTA/core = 16, limited by: threads
GPGPU-Sim: Reconfigure L1 cache to 128KB
thread block = 0,0,0
Destroy streams for kernel 1: size 0
----------------------------Interconnect-DETAILS--------------------------------
Req_Network_injected_packets_num = 31
Req_Network_cycles = 5712
Req_Network_injected_packets_per_cycle =       0.0054 
Req_Network_conflicts_per_cycle =       0.0000
Req_Network_conflicts_per_cycle_util =       0.0000
Req_Bank_Level_Parallism =       1.0000
Req_Network_in_buffer_full_per_cycle =       0.0000
Req_Network_in_buffer_avg_util =       0.0000
Req_Network_out_buffer_full_per_cycle =       0.0000
Req_Network_out_buffer_avg_util =       0.0001

Reply_Network_injected_packets_num = 31
Reply_Network_cycles = 5712
Reply_Network_injected_packets_per_cycle =        0.0054
Reply_Network_conflicts_per_cycle =        0.0005
Reply_Network_conflicts_per_cycle_util =       0.0968
Reply_Bank_Level_Parallism =       1.0000
Reply_Network_in_buffer_full_per_cycle =       0.0000
Reply_Network_in_buffer_avg_util =       0.0000
Reply_Network_out_buffer_full_per_cycle =       0.0000
Reply_Network_out_buffer_avg_util =       0.0001
----------------------------END-of-Interconnect-DETAILS-------------------------


gpgpu_simulation_time = 0 days, 0 hrs, 1 min, 5 sec (65 sec)
gpgpu_simulation_rate = 26 (inst/sec)
gpgpu_simulation_rate = 87 (cycle/sec)
gpgpu_silicon_slowdown = 13011494x
Processing kernel ./traces/kernel-2.traceg
-kernel name = _Z4Fan2PfS_S_iii
-kernel id = 2
-grid dim = (1,1,1)
-block dim = (16,16,1)
-shmem = 0
-nregs = 16
-binary version = 70
-cuda stream id = 0
-shmem base_addr = 0x00007f158a000000
-local mem base_addr = 0x00007f1588000000
-nvbit version = 1.5.3
-accelsim tracer version = 3
Header info loaded for kernel command : ./traces/kernel-2.traceg
launching kernel name: _Z4Fan2PfS_S_iii uid: 2 cuda_stream_id: 0
GPGPU-Sim uArch: Shader 1 bind to kernel 2 '_Z4Fan2PfS_S_iii'
GPGPU-Sim: Reconfigure L1 cache to 128KB
thread block = 0,0,0
Destroy streams for kernel 2: size 0
----------------------------Interconnect-DETAILS--------------------------------
Req_Network_injected_packets_num = 202
Req_Network_cycles = 11867
Req_Network_injected_packets_per_cycle =       0.0170 
Req_Network_conflicts_per_cycle =       0.0000
Req_Network_conflicts_per_cycle_util =       0.0000
Req_Bank_Level_Parallism =       1.0000
Req_Network_in_buffer_full_per_cycle =       0.0000
Req_Network_in_buffer_avg_util =       0.0000
Req_Network_out_buffer_full_per_cycle =       0.0000
Req_Network_out_buffer_avg_util =       0.0003

Reply_Network_injected_packets_num = 202
Reply_Network_cycles = 11867
Reply_Network_injected_packets_per_cycle =        0.0170
Reply_Network_conflicts_per_cycle =        0.0016
Reply_Network_conflicts_per_cycle_util =       0.0941
Reply_Bank_Level_Parallism =       1.0000
Reply_Network_in_buffer_full_per_cycle =       0.0000
Reply_Network_in_buffer_avg_util =       0.0000
Reply_Network_out_buffer_full_per_cycle =       0.0000
Reply_Network_out_buffer_avg_util =       0.0002
----------------------------END-of-Interconnect-DETAILS-------------------------


gpgpu_simulation_time = 0 days, 0 hrs, 2 min, 13 sec (133 sec)
gpgpu_simulation_rate = 68 (inst/sec)
gpgpu_simulation_rate = 89 (cycle/sec)
gpgpu_silicon_slowdown = 12719101x
Processing kernel ./traces/kernel-3.traceg
-kernel name = _Z4Fan1PfS_ii
-kernel id = 3
-grid dim = (1,1,1)
-block dim = (128,1,1)
-shmem = 0
-nregs = 17
-binary version = 70
-cuda stream id = 0
-shmem base_addr = 0x00007f158a000000
-local mem base_addr = 0x00007f1588000000
-nvbit version = 1.5.3
-accelsim tracer version = 3
Header info loaded for kernel command : ./traces/kernel-3.traceg
launching kernel name: _Z4Fan1PfS_ii uid: 3 cuda_stream_id: 0
GPGPU-Sim uArch: Shader 2 bind to kernel 3 '_Z4Fan1PfS_ii'
GPGPU-Sim: Reconfigure L1 cache to 128KB
thread block = 0,0,0
Phase 0 completed: 10084 instructions executed.
Total instructions so far: 10084

==========Power Statistics for Phase==========
Total Power: 55.498775 W
=============================================

kernel_name = _Z4Fan1PfS_ii _Z4Fan2PfS_S_iii _Z4Fan1PfS_ii 
kernel_launch_uid = 1 2 3 
kernel_stream_id = 18446744073709551615
gpu_phase_ipc =       0.5965
gpu_sim_cycle = 5038
gpu_sim_insn = 928
gpu_ipc =       0.1842
gpu_tot_sim_cycle = 16905
gpu_tot_sim_insn = 10084
gpu_tot_ipc =       0.5965
gpu_tot_issued_cta = 3
gpu_occupancy = 6.2500% 
gpu_tot_occupancy = 6.4934% 
max_total_param_size = 0
gpu_stall_dramfull = 0
gpu_stall_icnt2sh    = 0
partiton_level_parallism =       0.0000
partiton_level_parallism_total  =       0.0119
partiton_level_parallism_util =         -nan
partiton_level_parallism_util_total  =       1.0000
L2_BW  =       0.0000 GB/Sec
L2_BW_total  =       0.4328 GB/Sec
gpu_total_sim_rate=48
maxmflatency = 337 
max_icnt2mem_latency = 51 
maxmrqlatency = 20 
max_icnt2sh_latency = 5 
averagemflatency = 229 
avg_icnt2mem_latency = 32 
avg_mrq_latency = 8 
avg_icnt2sh_latency = 2 
mrq_lat_table:18 	7 	3 	0 	21 	0 	0 	0 	0 	0 	0 	0 	0 	0 	0 	0 	0 	0 	0 	0 	0 	0 	0 	0 	0 	0 	0 	0 	0 	0 	0 	0 	
dq_lat_table:0 	0 	0 	0 	0 	0 	0 	0 	0 	0 	0 	0 	0 	0 	0 	0 	0 	0 	0 	0 	0 	0 	0 	0 	0 	0 	0 	0 	0 	0 	0 	0 	
mf_lat_table:0 	0 	0 	0 	0 	0 	0 	153 	49 	0 	0 	0 	0 	0 	0 	0 	0 	0 	0 	0 	0 	0 	0 	0 	0 	0 	0 	0 	0 	0 	0 	0 	
icnt2mem_lat_table:0 	0 	0 	0 	118 	84 	0 	0 	0 	0 	0 	0 	0 	0 	0 	0 	0 	0 	0 	0 	0 	0 	0 	0 	
icnt2sh_lat_table:0 	198 	4 	0 	0 	0 	0 	0 	0 	0 	0 	0 	0 	0 	0 	0 	0 	0 	0 	0 	0 	0 	0 	0 	
mf_lat_pw_table:0 	0 	0 	0 	0 	0 	0 	3 	2 	0 	0 	0 	0 	0 	0 	0 	0 	0 	0 	0 	0 	0 	0 	0 	0 	0 	0 	0 	0 	0 	0 	0 	
maximum concurrent accesses to same row:
dram[0]:         0         0         0         0         0         0         0         0         0         0         0         0         0         0         0         0 
dram[1]:         0         0         0         0         0         0         0         0         0         0         0         0         0         0         0         0 
dram[2]:         0         0         0         0         0         0         0         0         0         0         0         0         0         0         0         0 
dram[3]:         0         0         0         0         0         0         0         0         0         0         0         0         0         0         0         0 
dram[4]:         0         0         0         0         0         0         0         0         0         0         0         0         0         0         0         0 
dram[5]:         0         0         0         0         0         0         0         0         0         0         0         0         0         0         0         0 
dram[6]:         0         0         0         0         0         0         0         0         0         0         0         0         0         0         0         0 
dram[7]:         0         0         0         0         0         0         0         0         0         0         0         0         0         0         0         0 
dram[8]:         0         0         0         0         0         0         0         0         0         0         0         0         0         0         0         0 
dram[9]:         0         0         0         0         0         0         0         0         0         0         0         0         0         0         0         0 
dram[10]:         0         0         0         0         0         0         0         0         0         0         0         0         0         0         0         0 
dram[11]:         0         0         0         0         0         0         0         0         0         0         0         0         0         0         0         0 
dram[12]:         0         0         0         0         0         0         0         0         0         0         0         0         0         0         0         0 
dram[13]:         0         0         0         0         0         0         0         0         0         0         0         0         0         0         0         0 
dram[14]:         0         0         0         0         0         0         0         0         0         0         0         0         0         0         0         0 
dram[15]:         0         0         0         0         0         0         0         0         0         0         0         0         0         0         0         0 
dram[16]:         0         0         0         0         0         0         0         0         0         0         0         0         0         0         0         0 
dram[17]:         0         0         0         0         0         0         0         0         0         0         0         0         0         0         0         0 
dram[18]:         0         0         0         0         0         0         0         0         0         0         0         0         0         0         0         0 
dram[19]:         0         0         0         0         0         0         0         0         0         0         0         0         0         0         0         0 
dram[20]:         0         0         0         0         0         0         0         0         0         0         0         0         0         0         0         0 
dram[21]:         0         0         0         0         0         0         0         0         0         0         0         0         0         0         0         0 
dram[22]:         0         0         0         0         0         0         0         0         0         0         0         0         0         0         0         0 
dram[23]:         0         0         0         0         0         0         0         0         0         0         0         0         0         0         0         0 
dram[24]:         0         0         0         0         0         0         0         0         0         0         0         0         0         0         0         0 
dram[25]:         0         0         0         0         0         0         0         0         0         0         0         0         0         0         0         0 
dram[26]:         0         0         0         0         0         0         0         0         0         0         0         0         0         0         0         0 
dram[27]:         0         0         0         0         0         0         0         0         0         0         0         0         0         0         0         0 
dram[28]:         0         0         0         0         0         0         0         0         0         0         0         0         0         0         0         0 
dram[29]:         0         0         0         0         0         0         0         0         0         0         0         0         0         0         0         0 
dram[30]:         0         0         0         0         0         0         0         0         0         0         0         0         0         0         0         0 
dram[31]:         0         0         0         0         0         0         0         0         0         0         0         0         0         0         0         0 
maximum service time to same row:
dram[0]:         0         0         0         0         0         0         0         0         0         0         0         0         0         0         0         0 
dram[1]:         0         0         0         0         0         0         0         0         0         0         0         0         0         0         0         0 
dram[2]:         0         0         0         0         0         0         0         0         0         0         0         0         0         0         0         0 
dram[3]:         0         0         0         0         0         0         0         0         0         0         0         0         0         0         0         0 
dram[4]:         0         0         0         0         0         0         0         0         0         0         0         0         0         0         0         0 
dram[5]:         0         0         0         0         0         0         0         0         0         0         0         0         0         0         0         0 
dram[6]:         0         0         0         0         0         0         0         0         0         0         0         0         0         0         0         0 
dram[7]:         0         0         0         0         0         0         0         0         0         0         0         0         0         0         0         0 
dram[8]:         0         0         0         0         0         0         0         0         0         0         0         0         0         0         0         0 
dram[9]:         0         0         0         0         0         0         0         0         0         0         0         0         0         0         0         0 
dram[10]:         0         0         0         0         0         0         0         0         0         0         0         0         0         0         0         0 
dram[11]:         0         0         0         0         0         0         0         0         0         0         0         0         0         0         0         0 
dram[12]:         0         0         0         0         0         0         0         0         0         0         0         0         0         0         0         0 
dram[13]:         0         0         0         0         0         0         0         0         0         0         0         0         0         0         0         0 
dram[14]:         0         0         0         0         0         0         0         0         0         0         0         0         0         0         0         0 
dram[15]:         0         0         0         0         0         0         0         0         0         0         0         0         0         0         0         0 
dram[16]:         0         0         0         0         0         0         0         0         0         0         0         0         0         0         0         0 
dram[17]:         0         0         0         0         0         0         0         0         0         0         0         0         0         0         0         0 
dram[18]:         0         0         0         0         0         0         0         0         0         0         0         0         0         0         0         0 
dram[19]:      5913         0         0         0         0         0         0         0         0         0         0         0         0         0         0         0 
dram[20]:         0         0         0         0         0         0         0         0         0         0         0         0         0         0         0         0 
[...]
L2_cache_bank[60]: Access = 136, Miss = 8, Miss_rate = 0.059, Pending_hits = 0, Reservation_fails = 0
L2_cache_bank[61]: Access = 0, Miss = 0, Miss_rate = -nan, Pending_hits = 0, Reservation_fails = 0
L2_cache_bank[62]: Access = 77, Miss = 8, Miss_rate = 0.104, Pending_hits = 0, Reservation_fails = 0
L2_cache_bank[63]: Access = 0, Miss = 0, Miss_rate = -nan, Pending_hits = 0, Reservation_fails = 0
L2_total_cache_accesses = 593
L2_total_cache_misses = 64
L2_total_cache_miss_rate = 0.1079
L2_total_cache_pending_hits = 0
L2_total_cache_reservation_fails = 0
L2_total_cache_breakdown:
	L2_cache_stats_breakdown[GLOBAL_ACC_R][HIT] = 147
	L2_cache_stats_breakdown[GLOBAL_ACC_R][HIT_RESERVED] = 0
	L2_cache_stats_breakdown[GLOBAL_ACC_R][MISS] = 9
	L2_cache_stats_breakdown[GLOBAL_ACC_R][RESERVATION_FAIL] = 0
	L2_cache_stats_breakdown[GLOBAL_ACC_R][SECTOR_MISS] = 40
	L2_cache_stats_breakdown[GLOBAL_ACC_R][MSHR_HIT] = 0
	L2_cache_stats_breakdown[LOCAL_ACC_R][HIT] = 0
	L2_cache_stats_breakdown[LOCAL_ACC_R][HIT_RESERVED] = 0
	L2_cache_stats_breakdown[LOCAL_ACC_R][MISS] = 0
	L2_cache_stats_breakdown[LOCAL_ACC_R][RESERVATION_FAIL] = 0
	L2_cache_stats_breakdown[LOCAL_ACC_R][SECTOR_MISS] = 0
	L2_cache_stats_breakdown[LOCAL_ACC_R][MSHR_HIT] = 0
	L2_cache_stats_breakdown[CONST_ACC_R][HIT] = 0
	L2_cache_stats_breakdown[CONST_ACC_R][HIT_RESERVED] = 0
	L2_cache_stats_breakdown[CONST_ACC_R][MISS] = 0
	L2_cache_stats_breakdown[CONST_ACC_R][RESERVATION_FAIL] = 0
	L2_cache_stats_breakdown[CONST_ACC_R][SECTOR_MISS] = 0
	L2_cache_stats_breakdown[CONST_ACC_R][MSHR_HIT] = 0
	L2_cache_stats_breakdown[TEXTURE_ACC_R][HIT] = 0
	L2_cache_stats_breakdown[TEXTURE_ACC_R][HIT_RESERVED] = 0
	L2_cache_stats_breakdown[TEXTURE_ACC_R][MISS] = 0
	L2_cache_stats_breakdown[TEXTURE_ACC_R][RESERVATION_FAIL] = 0
	L2_cache_stats_breakdown[TEXTURE_ACC_R][SECTOR_MISS] = 0
	L2_cache_stats_breakdown[TEXTURE_ACC_R][MSHR_HIT] = 0
	L2_cache_stats_breakdown[GLOBAL_ACC_W][HIT] = 382
	L2_cache_stats_breakdown[GLOBAL_ACC_W][HIT_RESERVED] = 0
	L2_cache_stats_breakdown[GLOBAL_ACC_W][MISS] = 8
	L2_cache_stats_breakdown[GLOBAL_ACC_W][RESERVATION_FAIL] = 0
	L2_cache_stats_breakdown[GLOBAL_ACC_W][SECTOR_MISS] = 7
	L2_cache_stats_breakdown[GLOBAL_ACC_W][MSHR_HIT] = 0
	L2_cache_stats_breakdown[LOCAL_ACC_W][HIT] = 0
	L2_cache_stats_breakdown[LOCAL_ACC_W][HIT_RESERVED] = 0
	L2_cache_stats_breakdown[LOCAL_ACC_W][MISS] = 0
	L2_cache_stats_breakdown[LOCAL_ACC_W][RESERVATION_FAIL] = 0
	L2_cache_stats_breakdown[LOCAL_ACC_W][SECTOR_MISS] = 0
	L2_cache_stats_breakdown[LOCAL_ACC_W][MSHR_HIT] = 0
	L2_cache_stats_breakdown[L1_WRBK_ACC][HIT] = 0
	L2_cache_stats_breakdown[L1_WRBK_ACC][HIT_RESERVED] = 0
	L2_cache_stats_breakdown[L1_WRBK_ACC][MISS] = 0
	L2_cache_stats_breakdown[L1_WRBK_ACC][RESERVATION_FAIL] = 0
	L2_cache_stats_breakdown[L1_WRBK_ACC][SECTOR_MISS] = 0
	L2_cache_stats_breakdown[L1_WRBK_ACC][MSHR_HIT] = 0
	L2_cache_stats_breakdown[L2_WRBK_ACC][HIT] = 0
	L2_cache_stats_breakdown[L2_WRBK_ACC][HIT_RESERVED] = 0
	L2_cache_stats_breakdown[L2_WRBK_ACC][MISS] = 0
	L2_cache_stats_breakdown[L2_WRBK_ACC][RESERVATION_FAIL] = 0
	L2_cache_stats_breakdown[L2_WRBK_ACC][SECTOR_MISS] = 0
	L2_cache_stats_breakdown[L2_WRBK_ACC][MSHR_HIT] = 0
	L2_cache_stats_breakdown[INST_ACC_R][HIT] = 0
	L2_cache_stats_breakdown[INST_ACC_R][HIT_RESERVED] = 0
	L2_cache_stats_breakdown[INST_ACC_R][MISS] = 0
	L2_cache_stats_breakdown[INST_ACC_R][RESERVATION_FAIL] = 0
	L2_cache_stats_breakdown[INST_ACC_R][SECTOR_MISS] = 0
	L2_cache_stats_breakdown[INST_ACC_R][MSHR_HIT] = 0
	L2_cache_stats_breakdown[L1_WR_ALLOC_R][HIT] = 0
	L2_cache_stats_breakdown[L1_WR_ALLOC_R][HIT_RESERVED] = 0
	L2_cache_stats_breakdown[L1_WR_ALLOC_R][MISS] = 0
	L2_cache_stats_breakdown[L1_WR_ALLOC_R][RESERVATION_FAIL] = 0
	L2_cache_stats_breakdown[L1_WR_ALLOC_R][SECTOR_MISS] = 0
	L2_cache_stats_breakdown[L1_WR_ALLOC_R][MSHR_HIT] = 0
	L2_cache_stats_breakdown[L2_WR_ALLOC_R][HIT] = 0
	L2_cache_stats_breakdown[L2_WR_ALLOC_R][HIT_RESERVED] = 0
	L2_cache_stats_breakdown[L2_WR_ALLOC_R][MISS] = 0
	L2_cache_stats_breakdown[L2_WR_ALLOC_R][RESERVATION_FAIL] = 0
	L2_cache_stats_breakdown[L2_WR_ALLOC_R][SECTOR_MISS] = 0
	L2_cache_stats_breakdown[L2_WR_ALLOC_R][MSHR_HIT] = 0
	L2_cache_stats_breakdown[GLOBAL_ACC_R][TOTAL_ACCESS] = 196
	L2_cache_stats_breakdown[GLOBAL_ACC_W][TOTAL_ACCESS] = 397
L2_total_cache_reservation_fail_breakdown:
L2_cache_data_port_util = 0.000
L2_cache_fill_port_util = 0.000

icnt_total_pkts_mem_to_simt=593
icnt_total_pkts_simt_to_mem=593
LD_mem_lat_dist  0 0 0 0 0 0 0 0 0 0 0 0 0 0 0 0 0 0 0 0 0 0 0 0 0 0 0
ST_mem_lat_dist  0 0 0 0 0 0 0 0 0 0 0 0 0 0 0 0 0 0 0 0 0 0 0 0 0 0 0
Dumping pipeline state...
=================================================
shader 0 at cycle 40360+100000 (0 threads running)
=================================================

per warp functional simulation status:

Cache L1I_000:
MSHR contents

IF/ID       = bubble

ibuffer status:

per warp SIMT control-flow state:

-------------------------- Scoreboard
scoreboard contents (sid=0): 
-------------------------- OP COL

Operand Collector State:
   CU- 0:     <free>
   CU- 1:     <free>
   CU- 2:     <free>
   CU- 3:     <free>
   CU- 4:     <free>
   CU- 5:     <free>
   CU- 6:     <free>
   CU- 7:     <free>

  Arbiter State:
  requests:
    bank 0 : 
    bank 1 : 
    bank 2 : 
    bank 3 : 
    bank 4 : 
    bank 5 : 
    bank 6 : 
    bank 7 : 
    bank 8 : 
    bank 9 : 
    bank 10 : 
    bank 11 : 
    bank 12 : 
    bank 13 : 
    bank 14 : 
    bank 15 : 
  grants:
    bank 0 : <free>
    bank 1 : <free>
    bank 2 : <free>
    bank 3 : <free>
    bank 4 : <free>
    bank 5 : <free>
    bank 6 : <free>
    bank 7 : <free>
    bank 8 : <free>
    bank 9 : <free>
    bank 10 : <free>
    bank 11 : <free>
    bank 12 : <free>
    bank 13 : <free>
    bank 14 : <free>
    bank 15 : <free>

-------------------------- Pipe Regs
--- ID_OC_SP ---
ID_OC_SP : @0x562d632018b0
     bubble

     bubble

     bubble

     bubble

     bubble

     bubble

     bubble

     bubble


--- ID_OC_DP ---
ID_OC_DP : @0x562d632018d0
     bubble

     bubble

     bubble

     bubble

     bubble

     bubble

     bubble

     bubble


--- ID_OC_INT ---
ID_OC_INT : @0x562d632018f0
     bubble

     bubble

     bubble

     bubble

     bubble

     bubble

     bubble

     bubble


--- ID_OC_SFU ---
ID_OC_SFU : @0x562d63201910
     bubble

     bubble

     bubble

     bubble

     bubble

     bubble

     bubble

     bubble


--- ID_OC_MEM ---
ID_OC_MEM : @0x562d63201930
     bubble

     bubble

     bubble

     bubble

     bubble

     bubble

     bubble

     bubble


--- OC_EX_SP ---
OC_EX_SP : @0x562d63201950
     bubble

     bubble

     bubble

     bubble

     bubble

     bubble

     bubble

     bubble


--- OC_EX_DP ---
OC_EX_DP : @0x562d63201970
     bubble

     bubble

     bubble

     bubble

     bubble

     bubble

     bubble

     bubble


--- OC_EX_INT ---
OC_EX_INT : @0x562d63201990
     bubble

     bubble

     bubble

     bubble

     bubble

     bubble

     bubble

     bubble


--- OC_EX_SFU ---
OC_EX_SFU : @0x562d632019b0
     bubble

     bubble

     bubble

     bubble

     bubble

     bubble

     bubble

     bubble


--- OC_EX_MEM ---
OC_EX_MEM : @0x562d632019d0
     bubble

     bubble

     bubble

     bubble

     bubble

     bubble

     bubble

     bubble


--- EX_WB ---
EX_WB : @0x562d632019f0
     bubble

     bubble

     bubble

     bubble

     bubble

     bubble

     bubble

     bubble

     bubble

     bubble

     bubble

     bubble

     bubble

     bubble

     bubble

     bubble


--- ID_OC_TENSOR_CORE ---
ID_OC_TENSOR_CORE : @0x562d63201a10
     bubble

     bubble

     bubble

     bubble

     bubble

     bubble

     bubble

     bubble


--- OC_EX_TENSOR_CORE ---
OC_EX_TENSOR_CORE : @0x562d63201a30
     bubble

     bubble

     bubble

     bubble

     bubble

     bubble

     bubble

     bubble


-------------------------- Fu
SP  dispatch= bubble
---------------
SP  dispatch= bubble
---------------
SP  dispatch= bubble
---------------
SP  dispatch= bubble
---------------
DP  dispatch= bubble
---------------
DP  dispatch= bubble
---------------
DP  dispatch= bubble
---------------
DP  dispatch= bubble
---------------
DP  dispatch= bubble
---------------
DP  dispatch= bubble
---------------
DP  dispatch= bubble
---------------
DP  dispatch= bubble
---------------
INT  dispatch= bubble
---------------
INT  dispatch= bubble
---------------
INT  dispatch= bubble
---------------
INT  dispatch= bubble
---------------
INT  dispatch= bubble
---------------
INT  dispatch= bubble
---------------
INT  dispatch= bubble
---------------
INT  dispatch= bubble
---------------
SFU dispatch= bubble
---------------
SFU dispatch= bubble
---------------
SFU dispatch= bubble
---------------
SFU dispatch= bubble
---------------
SFU dispatch= bubble
---------------
SFU dispatch= bubble
---------------
SFU dispatch= bubble
---------------
SFU dispatch= bubble
---------------
TENSOR_CORE dispatch= bubble
---------------
TENSOR_CORE dispatch= bubble
---------------
TENSOR_CORE dispatch= bubble
---------------
TENSOR_CORE dispatch= bubble
---------------
TENSOR_CORE dispatch= bubble
---------------
TENSOR_CORE dispatch= bubble
---------------
TENSOR_CORE dispatch= bubble
---------------
TENSOR_CORE dispatch= bubble
---------------
BRA dispatch= bubble
---------------
BRA dispatch= bubble
---------------
BRA dispatch= bubble
---------------
BRA dispatch= bubble
---------------
BRA dispatch= bubble
---------------
BRA dispatch= bubble
---------------
BRA dispatch= bubble
---------------
BRA dispatch= bubble
---------------
TEX dispatch= bubble
---------------
TEX dispatch= bubble
---------------
TEX dispatch= bubble
---------------
TEX dispatch= bubble
---------------
TEX dispatch= bubble
---------------
TEX dispatch= bubble
---------------
TEX dispatch= bubble
---------------
TEX dispatch= bubble
---------------
TENSOR dispatch= bubble
---------------
TENSOR dispatch= bubble
---------------
TENSOR dispatch= bubble
---------------
TENSOR dispatch= bubble
---------------
TENSOR dispatch= bubble
---------------
TENSOR dispatch= bubble
---------------
TENSOR dispatch= bubble
---------------
TENSOR dispatch= bubble
---------------
LD/ST unit  = bubble
LD/ST wb    = bubble
Last LD/ST writeback @ 5423 + 0 (gpu_sim_cycle+gpu_tot_sim_cycle)
Pending register writes:
Cache L1C_000:
MSHR contents

L1T_000 (texture cache) state:
fragment fifo entries  = 0 / 512
reorder buffer entries = 0 / 128
request fifo entries   = 0 / 8
Cache L1D_000:
MSHR contents

LD/ST response FIFO (occupancy = 0):
---------------
-------------------------- other:
EX/WB sched[0]= 00000000000000000000000000000000000000000000000000000000000000000000000000000000000000000000000000000000000000000000000000000000000000000000000000000000000000000000000000000000000000000000000000000000000000000000000000000000000000000000000000000000000000000000000000000000000000000000000000000000000000000000000000000000000000000000000000000000000000000000000000000000000000000000000000000000000000000000000000000000000000000000000000000000000000000000000000000000000000000000000000000000000000000000000000000000
EX/WB sched[1]= 00000000000000000000000000000000000000000000000000000000000000000000000000000000000000000000000000000000000000000000000000000000000000000000000000000000000000000000000000000000000000000000000000000000000000000000000000000000000000000000000000000000000000000000000000000000000000000000000000000000000000000000000000000000000000000000000000000000000000000000000000000000000000000000000000000000000000000000000000000000000000000000000000000000000000000000000000000000000000000000000000000000000000000000000000000000
EX/WB sched[2]= 00000000000000000000000000000000000000000000000000000000000000000000000000000000000000000000000000000000000000000000000000000000000000000000000000000000000000000000000000000000000000000000000000000000000000000000000000000000000000000000000000000000000000000000000000000000000000000000000000000000000000000000000000000000000000000000000000000000000000000000000000000000000000000000000000000000000000000000000000000000000000000000000000000000000000000000000000000000000000000000000000000000000000000000000000000000
EX/WB sched[3]= 00000000000000000000000000000000000000000000000000000000000000000000000000000000000000000000000000000000000000000000000000000000000000000000000000000000000000000000000000000000000000000000000000000000000000000000000000000000000000000000000000000000000000000000000000000000000000000000000000000000000000000000000000000000000000000000000000000000000000000000000000000000000000000000000000000000000000000000000000000000000000000000000000000000000000000000000000000000000000000000000000000000000000000000000000000000
EX/WB sched[4]= 00000000000000000000000000000000000000000000000000000000000000000000000000000000000000000000000000000000000000000000000000000000000000000000000000000000000000000000000000000000000000000000000000000000000000000000000000000000000000000000000000000000000000000000000000000000000000000000000000000000000000000000000000000000000000000000000000000000000000000000000000000000000000000000000000000000000000000000000000000000000000000000000000000000000000000000000000000000000000000000000000000000000000000000000000000000
EX/WB sched[5]= 00000000000000000000000000000000000000000000000000000000000000000000000000000000000000000000000000000000000000000000000000000000000000000000000000000000000000000000000000000000000000000000000000000000000000000000000000000000000000000000000000000000000000000000000000000000000000000000000000000000000000000000000000000000000000000000000000000000000000000000000000000000000000000000000000000000000000000000000000000000000000000000000000000000000000000000000000000000000000000000000000000000000000000000000000000000
EX/WB sched[6]= 00000000000000000000000000000000000000000000000000000000000000000000000000000000000000000000000000000000000000000000000000000000000000000000000000000000000000000000000000000000000000000000000000000000000000000000000000000000000000000000000000000000000000000000000000000000000000000000000000000000000000000000000000000000000000000000000000000000000000000000000000000000000000000000000000000000000000000000000000000000000000000000000000000000000000000000000000000000000000000000000000000000000000000000000000000000
EX/WB sched[7]= 00000000000000000000000000000000000000000000000000000000000000000000000000000000000000000000000000000000000000000000000000000000000000000000000000000000000000000000000000000000000000000000000000000000000000000000000000000000000000000000000000000000000000000000000000000000000000000000000000000000000000000000000000000000000000000000000000000000000000000000000000000000000000000000000000000000000000000000000000000000000000000000000000000000000000000000000000000000000000000000000000000000000000000000000000000000
EX/WB sched[8]= 00000000000000000000000000000000000000000000000000000000000000000000000000000000000000000000000000000000000000000000000000000000000000000000000000000000000000000000000000000000000000000000000000000000000000000000000000000000000000000000000000000000000000000000000000000000000000000000000000000000000000000000000000000000000000000000000000000000000000000000000000000000000000000000000000000000000000000000000000000000000000000000000000000000000000000000000000000000000000000000000000000000000000000000000000000000
EX/WB sched[9]= 00000000000000000000000000000000000000000000000000000000000000000000000000000000000000000000000000000000000000000000000000000000000000000000000000000000000000000000000000000000000000000000000000000000000000000000000000000000000000000000000000000000000000000000000000000000000000000000000000000000000000000000000000000000000000000000000000000000000000000000000000000000000000000000000000000000000000000000000000000000000000000000000000000000000000000000000000000000000000000000000000000000000000000000000000000000
EX/WB sched[10]= 00000000000000000000000000000000000000000000000000000000000000000000000000000000000000000000000000000000000000000000000000000000000000000000000000000000000000000000000000000000000000000000000000000000000000000000000000000000000000000000000000000000000000000000000000000000000000000000000000000000000000000000000000000000000000000000000000000000000000000000000000000000000000000000000000000000000000000000000000000000000000000000000000000000000000000000000000000000000000000000000000000000000000000000000000000000
EX/WB sched[11]= 00000000000000000000000000000000000000000000000000000000000000000000000000000000000000000000000000000000000000000000000000000000000000000000000000000000000000000000000000000000000000000000000000000000000000000000000000000000000000000000000000000000000000000000000000000000000000000000000000000000000000000000000000000000000000000000000000000000000000000000000000000000000000000000000000000000000000000000000000000000000000000000000000000000000000000000000000000000000000000000000000000000000000000000000000000000
EX/WB sched[12]= 00000000000000000000000000000000000000000000000000000000000000000000000000000000000000000000000000000000000000000000000000000000000000000000000000000000000000000000000000000000000000000000000000000000000000000000000000000000000000000000000000000000000000000000000000000000000000000000000000000000000000000000000000000000000000000000000000000000000000000000000000000000000000000000000000000000000000000000000000000000000000000000000000000000000000000000000000000000000000000000000000000000000000000000000000000000
EX/WB sched[13]= 00000000000000000000000000000000000000000000000000000000000000000000000000000000000000000000000000000000000000000000000000000000000000000000000000000000000000000000000000000000000000000000000000000000000000000000000000000000000000000000000000000000000000000000000000000000000000000000000000000000000000000000000000000000000000000000000000000000000000000000000000000000000000000000000000000000000000000000000000000000000000000000000000000000000000000000000000000000000000000000000000000000000000000000000000000000
EX/WB sched[14]= 00000000000000000000000000000000000000000000000000000000000000000000000000000000000000000000000000000000000000000000000000000000000000000000000000000000000000000000000000000000000000000000000000000000000000000000000000000000000000000000000000000000000000000000000000000000000000000000000000000000000000000000000000000000000000000000000000000000000000000000000000000000000000000000000000000000000000000000000000000000000000000000000000000000000000000000000000000000000000000000000000000000000000000000000000000000
EX/WB sched[15]= 00000000000000000000000000000000000000000000000000000000000000000000000000000000000000000000000000000000000000000000000000000000000000000000000000000000000000000000000000000000000000000000000000000000000000000000000000000000000000000000000000000000000000000000000000000000000000000000000000000000000000000000000000000000000000000000000000000000000000000000000000000000000000000000000000000000000000000000000000000000000000000000000000000000000000000000000000000000000000000000000000000000000000000000000000000000
EX/WB      = EX_WB : @0x562d632019f0
     bubble

     bubble

     bubble

     bubble

     bubble

     bubble

     bubble

     bubble

     bubble

     bubble

     bubble

     bubble

     bubble

     bubble

     bubble

     bubble


Last EX/WB writeback @ 5513 + 0 (gpu_sim_cycle+gpu_tot_sim_cycle)
Active Threads : 
Cluster 0 pipeline state
Response FIFO (occupancy = 0):


GPGPU-Sim uArch: ERROR ** deadlock detected: last writeback core 7 @ gpu_sim_cycle 5659 (+ gpu_tot_sim_cycle 4294907656) (94341 cycles ago)
GPGPU-Sim uArch: DEADLOCK  shader cores no longer committing instructions [core(# threads)]:
GPGPU-Sim uArch: DEADLOCK  7(96) 

Re-run the simulator in gdb and use debug routines in .gdbinit to debug this
